wipe
puts "System"
model basic -ndm 3 -ndf 6
puts "restraint"
node 1 0.000E+000 0.000E+000 0.000E+000
node 2 0.000E+000 0.000E+000 3.000E+003
puts "rigidDiaphragm"
puts "mass"
mass 1 9.003E-001 9.003E-001 0.000E+000 0.000E+000 0.000E+000 0.000E+000
mass 2 9.003E-001 9.003E-001 0.000E+000 0.000E+000 0.000E+000 0.000E+000
puts "node"
fix 1 1 1 1 1 1 1;
fix 2 0 1 0 1 0 1;
puts "Equal DOF"
puts "material"
##uniaxialMaterial Elastic 1 1.999E+005
##uniaxialMaterial Elastic 2 2.482E+004

uniaxialMaterial Steel01 1 335 200000 0.00001 
uniaxialMaterial Concrete01 2 -26.8 -0.002 -15 -0.006

uniaxialMaterial Elastic 3 1.999E+005
##NC500X500 
section Fiber 1 {
fiber -2.188E+002 -2.188E+002 3.906E+003 2
fiber -1.563E+002 -2.188E+002 3.906E+003 2
fiber -9.375E+001 -2.188E+002 3.906E+003 2
fiber -3.125E+001 -2.188E+002 3.906E+003 2
fiber 3.125E+001 -2.188E+002 3.906E+003 2
fiber 9.375E+001 -2.188E+002 3.906E+003 2
fiber 1.563E+002 -2.188E+002 3.906E+003 2
fiber 2.188E+002 -2.188E+002 3.906E+003 2
fiber -2.188E+002 -1.563E+002 3.906E+003 2
fiber -1.563E+002 -1.563E+002 3.906E+003 2
fiber -9.375E+001 -1.563E+002 3.906E+003 2
fiber -3.125E+001 -1.563E+002 3.906E+003 2
fiber 3.125E+001 -1.563E+002 3.906E+003 2
fiber 9.375E+001 -1.563E+002 3.906E+003 2
fiber 1.563E+002 -1.563E+002 3.906E+003 2
fiber 2.188E+002 -1.563E+002 3.906E+003 2
fiber -2.188E+002 -9.375E+001 3.906E+003 2
fiber -1.563E+002 -9.375E+001 3.906E+003 2
fiber -9.375E+001 -9.375E+001 3.906E+003 2
fiber -3.125E+001 -9.375E+001 3.906E+003 2
# ... 60 like lines cut
}

puts "transformation"
geomTransf Linear 1 1.000 0.000 0.000 
puts "element"
element nonlinearBeamColumn 1 1 2 3 1 1
puts "shell element"
puts "SOLID element"
puts "recorder"

puts "gravity"
## Load Case = DEAD
pattern Plain 1 Linear {
load 2 0.000E+000 0.000E+000 -20.000E+006 0.000E+000 0.000E+000 0.000E+000
}
puts "analysis"
constraints Plain
numberer Plain
system BandGeneral
test EnergyIncr 1.0e-6 200
algorithm Newton
integrator LoadControl 1.000E-002
analysis Static
analyze 10

recorder Node -file node0.out -time -nodeRange 1 2 -dof 1 2 3 disp

loadConst 0.0

puts "pushover"
## Load Case = PUSH
pattern Plain 3 Linear {
load 2 1.000E+003 0.000E+000 0.000E+000 0.000E+000 0.000E+000 0.000E+000
}
puts "analysis"
constraints Plain
numberer Plain
system BandGeneral
test EnergyIncr 1.0e-6 200
algorithm Newton
integrator DisplacementControl 2 1 1.000E+000
analysis Static
analyze 100
