
####################################################################
#  This file was made using the UWquad2D problem type in GiD.      #
#  Created by:  Chris McGann and Pedro Arduino, 2010               #
#              -University of Washington-                          #
####################################################################

wipe

#-----------------------------------------------------------------------------------------
#  1. CREATE SOIL NODES AND FIXITIES
#-----------------------------------------------------------------------------------------
model BasicBuilder -ndm 2 -ndf 3

set path $argv

# define soil nodes
node        1     250.000      6.000
node        2     250.000      5.462
node        3     250.000      4.923
node        4     250.000      4.385
node        5     250.000      3.846
node        6     250.000      3.308
node        7     250.000      2.769
node        8     250.000      2.231
node        9     250.000      1.692
node       10     250.000      1.154
node       11     250.000      0.615
node       12     250.000      0.077
node       13     250.000     -0.462
node       14     250.000     -1.000
node       15     250.000     -1.538
node       16     250.000     -2.077
node       17     250.000     -2.615
node       18     250.000     -3.154
node       19     250.000     -3.692
node       20     250.000     -4.231
# ... 9243 like lines cut
puts "Finished creating all -ndf 2 nodes..."


# define fixities for soil nodes
fix     1   0   0   1
fix     2   0   0   1
fix     3   0   0   1
fix    59   0   1   0
fix    60   0   0   1
fix    61   0   0   1
fix    62   0   0   1
fix   118   0   1   0
fix   119   0   0   1
fix   120   0   0   1
fix   121   0   0   1
fix   177   0   1   0
fix   178   0   0   1
fix   179   0   0   1
fix   180   0   0   1
fix   236   0   1   0
fix   237   0   0   1
fix   238   0   0   1
fix   239   0   0   1
fix   295   0   1   0
# ... 452 like lines cut
puts "Finished creating all -ndf 3 boundary conditions..."

# define equal degrees of freedom for free-field columns
equalDOF 9205 9146  1 2
equalDOF 9206 9147  1 2
equalDOF 9207 9148  1 2
equalDOF 9208 9149  1 2
equalDOF 9209 9150  1 2
equalDOF 9210 9151  1 2
equalDOF 9211 9152  1 2
equalDOF 9212 9153  1 2
equalDOF 9213 9154  1 2
equalDOF 9214 9155  1 2
equalDOF 9215 9156  1 2
equalDOF 9216 9157  1 2
equalDOF 9217 9158  1 2
equalDOF 9218 9159  1 2
equalDOF 9219 9160  1 2
equalDOF 9220 9161  1 2
equalDOF 9221 9162  1 2
equalDOF 9222 9163  1 2
equalDOF 9223 9164  1 2
equalDOF 9224 9165  1 2
# ... 38 like lines cut

equalDOF 60 1  1 2
equalDOF 61 2  1 2
equalDOF 62 3  1 2
equalDOF 63 4  1 2
equalDOF 64 5  1 2
equalDOF 65 6  1 2
equalDOF 66 7  1 2
equalDOF 67 8  1 2
equalDOF 68 9  1 2
equalDOF 69 10  1 2
equalDOF 70 11  1 2
equalDOF 71 12  1 2
equalDOF 72 13  1 2
equalDOF 73 14  1 2
equalDOF 74 15  1 2
equalDOF 75 16  1 2
equalDOF 76 17  1 2
equalDOF 77 18  1 2
equalDOF 78 19  1 2
equalDOF 79 20  1 2
# ... 38 like lines cut
puts "Finished creating equalDOF constraints for soil columns..."

equalDOF 9263 59  1
equalDOF 9263 118  1
equalDOF 9263 177  1
equalDOF 9263 236  1
equalDOF 9263 295  1
equalDOF 9263 354  1
equalDOF 9263 413  1
equalDOF 9263 472  1
equalDOF 9263 531  1
equalDOF 9263 590  1
equalDOF 9263 649  1
equalDOF 9263 708  1
equalDOF 9263 767  1
equalDOF 9263 826  1
equalDOF 9263 885  1
equalDOF 9263 944  1
equalDOF 9263 1003  1
equalDOF 9263 1062  1
equalDOF 9263 1121  1
equalDOF 9263 1180  1
# ... 136 like lines cut
puts "Finished creating equalDOF for base..."

#-----------------------------------------------------------------------------------------
#  2. CREATE SOIL MATERIALS
#-----------------------------------------------------------------------------------------


# PM4Sand - Dense
nDMaterial PM4Sand 1 0.85 1481. 3.0 2.1 101.1
set thick1 1.0
set xWgt1      0.00
set yWgt1        -9.81
set uBulk1 2.2e6
set hPerm1 1.0e-4
set vPerm1 1.0e-4
set mVoid1 0.51
set mAlpha1 1.0e-5

# PM4Sand - Dense FF
nDMaterial PM4Sand 2 0.85 1481. 3.0 2.1 101.1
set thick2 10000.
set xWgt2      0.00
set yWgt2        -9.81
set uBulk2 2.2e6
set hPerm2 1.0e-4
set vPerm2 1.0e-4
set mVoid2 0.51
set mAlpha2 1.0e-5

# PM4Sand - Loose
nDMaterial PM4Sand 3 0.35 474 0.45 1.8 101.1
set thick3 1.0
set xWgt3      0.00
set yWgt3        -9.81
set uBulk3 2.2e6
set hPerm3 1.0e-4
set vPerm3 1.0e-4
set mVoid3 0.77
set mAlpha3 1.0e-5

# PM4Sand - Loose FF
nDMaterial PM4Sand 4 0.35 474 0.45 1.8 101.1
set thick4 10000.
set xWgt4      0.00
set yWgt4        -9.81
set uBulk4 2.2e6
set hPerm4 1.0e-4
set vPerm4 1.0e-4
set mVoid4 0.77
set mAlpha4 1.0e-5
puts "Finished creating all soil materials..."

#-----------------------------------------------------------------------------------------
#  3. CREATE SOIL ELEMENTS
#-----------------------------------------------------------------------------------------

# permeabilities are initially set at 1.0 m/s for gravity analysis, values are updated after gravity
element SSPquadUP 1 9205 9206 9147 9146 4 $thick4 $uBulk4 1.0 1.0 1.0 $mVoid4 $mAlpha4 $xWgt4 $yWgt4
element SSPquadUP 2 9206 9207 9148 9147 4 $thick4 $uBulk4 1.0 1.0 1.0 $mVoid4 $mAlpha4 $xWgt4 $yWgt4
element SSPquadUP 3 9207 9208 9149 9148 4 $thick4 $uBulk4 1.0 1.0 1.0 $mVoid4 $mAlpha4 $xWgt4 $yWgt4
element SSPquadUP 4 9208 9209 9150 9149 4 $thick4 $uBulk4 1.0 1.0 1.0 $mVoid4 $mAlpha4 $xWgt4 $yWgt4
element SSPquadUP 5 9209 9210 9151 9150 4 $thick4 $uBulk4 1.0 1.0 1.0 $mVoid4 $mAlpha4 $xWgt4 $yWgt4
element SSPquadUP 6 9210 9211 9152 9151 4 $thick4 $uBulk4 1.0 1.0 1.0 $mVoid4 $mAlpha4 $xWgt4 $yWgt4
element SSPquadUP 7 9211 9212 9153 9152 4 $thick4 $uBulk4 1.0 1.0 1.0 $mVoid4 $mAlpha4 $xWgt4 $yWgt4
element SSPquadUP 8 9212 9213 9154 9153 4 $thick4 $uBulk4 1.0 1.0 1.0 $mVoid4 $mAlpha4 $xWgt4 $yWgt4
element SSPquadUP 9 9213 9214 9155 9154 4 $thick4 $uBulk4 1.0 1.0 1.0 $mVoid4 $mAlpha4 $xWgt4 $yWgt4
element SSPquadUP 10 9214 9215 9156 9155 4 $thick4 $uBulk4 1.0 1.0 1.0 $mVoid4 $mAlpha4 $xWgt4 $yWgt4
element SSPquadUP 11 9215 9216 9157 9156 4 $thick4 $uBulk4 1.0 1.0 1.0 $mVoid4 $mAlpha4 $xWgt4 $yWgt4
element SSPquadUP 12 9216 9217 9158 9157 4 $thick4 $uBulk4 1.0 1.0 1.0 $mVoid4 $mAlpha4 $xWgt4 $yWgt4
element SSPquadUP 13 9217 9218 9159 9158 4 $thick4 $uBulk4 1.0 1.0 1.0 $mVoid4 $mAlpha4 $xWgt4 $yWgt4
element SSPquadUP 14 9218 9219 9160 9159 4 $thick4 $uBulk4 1.0 1.0 1.0 $mVoid4 $mAlpha4 $xWgt4 $yWgt4
element SSPquadUP 15 9219 9220 9161 9160 4 $thick4 $uBulk4 1.0 1.0 1.0 $mVoid4 $mAlpha4 $xWgt4 $yWgt4
element SSPquadUP 16 9220 9221 9162 9161 4 $thick4 $uBulk4 1.0 1.0 1.0 $mVoid4 $mAlpha4 $xWgt4 $yWgt4
element SSPquadUP 17 9221 9222 9163 9162 4 $thick4 $uBulk4 1.0 1.0 1.0 $mVoid4 $mAlpha4 $xWgt4 $yWgt4
element SSPquadUP 18 9222 9223 9164 9163 4 $thick4 $uBulk4 1.0 1.0 1.0 $mVoid4 $mAlpha4 $xWgt4 $yWgt4
element SSPquadUP 19 9223 9224 9165 9164 4 $thick4 $uBulk4 1.0 1.0 1.0 $mVoid4 $mAlpha4 $xWgt4 $yWgt4
element SSPquadUP 20 9224 9225 9166 9165 4 $thick4 $uBulk4 1.0 1.0 1.0 $mVoid4 $mAlpha4 $xWgt4 $yWgt4
# ... 9028 like lines cut
puts "Finished creating all soil elements..."


#-----------------------------------------------------------------------------------------
#  4. LYSMER DASHPOT
#-----------------------------------------------------------------------------------------

model BasicBuilder -ndm 2 -ndf 2

# define dashpot nodes
node     9363    -150.000     -24.000
node     9364    -150.000     -24.000

# define fixities for dashpot nodes
fix 9363  1 1
fix 9364  0 1

# define equal DOF for dashpot and base soil node
equalDOF 9263 9364  1
puts "Finished creating dashpot nodes and boundary conditions..."

# define dashpot material
set baseArea 1000300.00
set dashpotCoeff    1750.00
uniaxialMaterial Viscous 5 [expr $dashpotCoeff*$baseArea] 1

# define dashpot element
element zeroLength 9049 9363 9364 -mat 5 -dir 1
puts "Finished creating dashpot material and element..."

#-----------------------------------------------------------------------------------------
#  5. DEFINE NODAL MASSES FOR MODELING WATER
#-----------------------------------------------------------------------------------------

model BasicBuilder -ndm 2 -ndf 3

# define nodal masses 
puts "Finished creating nodal masses..."
#-----------------------------------------------------------------------------------------
#  6. CREATE GRAVITY RECORDERS
#-----------------------------------------------------------------------------------------

# create list with soil node info
set nodeListS {}
set channel [open "$path/nodeInfo.dat" r]
set ctr 0;
foreach line [split [read -nonewline $channel] \n] {
set ctr0 [expr $ctr+1];
set lineData($ctr) $line
set nodeNumber [lindex $lineData($ctr) 0]
lappend nodeListS $nodeNumber
}
close $channel

# create solid element list
set SoilElementList {}
set channel [open "$path/elementInfo.dat" r]
set ctr 0;
foreach line [split [read -nonewline $channel] \n] {
set ctr0 [expr $ctr+1];
set lineData($ctr) $line
set elementNumber [lindex $lineData($ctr) 0]
lappend SoilElementList $elementNumber
}
close $channel

# record nodal displacement, acceleration, and pore pressure
eval "recorder Node -file $path/Gdisplacement.out -time -node $nodeListS -dof 1 2  disp"
eval "recorder Node -file $path/Gacceleration.out -time -node $nodeListS -dof 1 2  accel"
eval "recorder Node -file $path/GporePressure.out -time -node $nodeListS -dof 3    vel"
# record elemental stress and strain
eval "recorder Element -file $path/Gstress.out -time -ele $SoilElementList stress 3"
eval "recorder Element -file $path/Gstrain.out -time -ele $SoilElementList strain"
puts "Finished creating gravity recorders..."


#-----------------------------------------------------------------------------------------
#  7. DEFINE ANALYSIS PARAMETERS
#-----------------------------------------------------------------------------------------

#---RAYLEIGH DAMPING PARAMETERS
set pi      3.141592654
# damping ratio
set damp    0.02
# lower frequency
set omega1  [expr 2*$pi*0.2]
# upper frequency
set omega2  [expr 2*$pi*20]
# damping coefficients
set a0      [expr 2*$damp*$omega1*$omega2/($omega1 + $omega2)]
set a1      [expr 2*$damp/($omega1 + $omega2)]
puts "damping coefficients: a_0 = $a0;  a_1 = $a1"

#---ANALYSIS PARAMETERS
# Newmark parameters
set gamma   [expr 5.0/6.0]
set beta    [expr 4.0/9.0]

#-----------------------------------------------------------------------------------------
#  8. GRAVITY ANALYSIS
#-----------------------------------------------------------------------------------------

# update materials to ensure elastic behavior
updateMaterialStage -material 1 -stage 0
updateMaterialStage -material 2 -stage 0
updateMaterialStage -material 3 -stage 0
updateMaterialStage -material 4 -stage 0

#constraints Transformation
constraints Penalty 1e15 1e15
test        NormDispIncr 1e-2 35 0
algorithm   Newton
numberer    RCM
system      Mumps
integrator  Newmark $gamma $beta
analysis    Transient

set startT  [clock seconds]
analyze     10 5.0e2
puts "Finished with elastic gravity analysis..."

# update materials to consider plastic behavior
updateMaterialStage -material 1 -stage 1
updateMaterialStage -material 2 -stage 1
updateMaterialStage -material 3 -stage 1
updateMaterialStage -material 4 -stage 1
source $path/firstCall.dat

analyze 10 1.0
puts "Finished with plastic gravity analysis..."

#-----------------------------------------------------------------------------------------
#  9. UPDATE ELEMENT PERMEABILITY VALUES FOR POST-GRAVITY ANALYSIS
#-----------------------------------------------------------------------------------------

setParameter -value $hPerm4 -ele 1 hPerm
setParameter -value $vPerm4 -ele 1 vPerm
setParameter -value $hPerm4 -ele 2 hPerm
setParameter -value $vPerm4 -ele 2 vPerm
setParameter -value $hPerm4 -ele 3 hPerm
setParameter -value $vPerm4 -ele 3 vPerm
setParameter -value $hPerm4 -ele 4 hPerm
setParameter -value $vPerm4 -ele 4 vPerm
setParameter -value $hPerm4 -ele 5 hPerm
setParameter -value $vPerm4 -ele 5 vPerm
setParameter -value $hPerm4 -ele 6 hPerm
setParameter -value $vPerm4 -ele 6 vPerm
setParameter -value $hPerm4 -ele 7 hPerm
setParameter -value $vPerm4 -ele 7 vPerm
setParameter -value $hPerm4 -ele 8 hPerm
setParameter -value $vPerm4 -ele 8 vPerm
setParameter -value $hPerm4 -ele 9 hPerm
setParameter -value $vPerm4 -ele 9 vPerm
setParameter -value $hPerm4 -ele 10 hPerm
setParameter -value $vPerm4 -ele 10 vPerm
setParameter -value $hPerm4 -ele 11 hPerm
setParameter -value $vPerm4 -ele 11 vPerm
setParameter -value $hPerm4 -ele 12 hPerm
setParameter -value $vPerm4 -ele 12 vPerm
setParameter -value $hPerm4 -ele 13 hPerm
setParameter -value $vPerm4 -ele 13 vPerm
setParameter -value $hPerm4 -ele 14 hPerm
setParameter -value $vPerm4 -ele 14 vPerm
setParameter -value $hPerm4 -ele 15 hPerm
setParameter -value $vPerm4 -ele 15 vPerm
setParameter -value $hPerm4 -ele 16 hPerm
setParameter -value $vPerm4 -ele 16 vPerm
setParameter -value $hPerm4 -ele 17 hPerm
setParameter -value $vPerm4 -ele 17 vPerm
setParameter -value $hPerm4 -ele 18 hPerm
setParameter -value $vPerm4 -ele 18 vPerm
setParameter -value $hPerm4 -ele 19 hPerm
setParameter -value $vPerm4 -ele 19 vPerm
setParameter -value $hPerm4 -ele 20 hPerm
setParameter -value $vPerm4 -ele 20 vPerm
# ... 18056 like lines cut

#-----------------------------------------------------------------------------------------
#  10. CREATE POST-GRAVITY RECORDERS
#-----------------------------------------------------------------------------------------

# reset time and analysis
setTime 0.0
wipeAnalysis
remove recorders



# define velocity time history file
set velocityFile $path/motion1.vel
set accFile  $path/motion1.acc
set timeFile $path/motion1.time

#---GROUND MOTION PARAMETERS
# read number of lines in the velocity file
set channel [open $timeFile r]
set timeVec [split [read -nonewline $channel] \n]
set motionSteps [llength $timeVec]
set t1 [lindex $timeVec 0]
set t2 [lindex $timeVec 1]
set motionDT [expr $t2 - $t1]
close $channel

set duration [expr $motionSteps * $motionDT]

# new dt to use for analysis
# set motionDT 0.0025
# set motionSteps [expr int($duration / $motionDT) + 1]

set AnalysisdT  0.001
set RecorderdT  0.01
set nSteps  [expr int(floor($duration/$AnalysisdT)+1)]
set dT      $AnalysisdT

puts "Number of motion steps: $motionSteps"
puts "Motion time step: $motionDT"
puts "Motion length: $duration"


# record nodal displacement, acceleration, and pore pressure
eval "recorder Node -file $path/displacement.out -time -dT $RecorderdT -node $nodeListS -dof 1 2  disp"
eval "recorder Node -file $path/acceleration.out -time -dT $RecorderdT -node $nodeListS -dof 1 2  accel"
eval "recorder Node -file $path/porePressure.out -time -dT $RecorderdT -node $nodeListS -dof 3    vel"
# record elemental stress and strain
eval "recorder Element -file $path/stress.out -time -dT $RecorderdT -ele $SoilElementList stress 3"
eval "recorder Element -file $path/strain.out -time -dT $RecorderdT -ele $SoilElementList strain"

puts "Finished creating all recorders..."

#-----------------------------------------------------------------------------------------
#  11. DYNAMIC ANALYSIS
#-----------------------------------------------------------------------------------------

# define constant scaling factor for applied velocity
set cFactor [expr $baseArea*$dashpotCoeff]
# timeseries object for force history
set mSeries "Path -fileTime $timeFile -filePath $velocityFile -factor $cFactor"

# loading object
pattern Plain 10 $mSeries {
load 9263  1.0 0.0 0.0
}


puts "Dynamic loading created..."

set gamma  0.5
set beta   0.25

constraints Penalty 1.e15 1.e15
# constraints Transformation
test        NormDispIncr 1.0e-2 35 0
algorithm   Newton
numberer    RCM
system      Mumps
integrator  Newmark $gamma $beta
rayleigh    $a0 $a1 0.0 0.0
analysis    Transient

# Set number and length of (pseudo)time steps
set numStep $nSteps

#set numStep 0

# Analyze and use substepping if needed
set remStep $numStep
set success 0
proc subStepAnalyze {dT subStep} {
        if {$subStep > 10} {
                return -10
        }
        for {set i 1} {$i < 3} {incr i} {
                puts "Try dT = $dT"
                set success [analyze 1 $dT]
                if {$success != 0} {
                        set success [subStepAnalyze [expr $dT/2.0] [expr $subStep+1]]
                        if {$success == -10} {
                                puts "Did not converge."
                                return success
                        }
                } else {
                        if {$i==1} {
                                puts "Substep $subStep : Left side converged with dT = $dT"
                        } else {
                                puts "Substep $subStep : Right side converged with dT = $dT"
                        }
                }
        }
        return success
}

puts "Start analysis"
set startT [clock seconds]

while {$success != -10} {
        set subStep 0
        set success [analyze $remStep  $dT]
        if {$success == 0} {
                puts "Analysis Finished"
                break
        } else {
                set curTime  [getTime]
                puts "Analysis failed at $curTime . Try substepping."
                set success  [subStepAnalyze [expr $dT/2.0] [incr subStep]]
        set curStep  [expr int($curTime/$dT + 1)]
        set remStep  [expr int($numStep-$curStep)]
                puts "Current step: $curStep , Remaining steps: $remStep"
        }
}
set endT [clock seconds]
puts "loading analysis execution time: [expr $endT-$startT] seconds."
wipe

