wipe
puts "System"
model basic -ndm 3 -ndf 6
puts "restraint"
node 1 0.000E+000 3.000E+002 0.000E+000
node 2 1.000E+002 3.000E+002 0.000E+000
node 3 1.000E+002 2.000E+002 0.000E+000
node 4 1.000E+002 1.000E+002 0.000E+000
node 5 2.000E+002 1.000E+002 0.000E+000
node 6 0.000E+000 1.000E+002 0.000E+000
node 7 2.000E+002 3.000E+002 0.000E+000
node 8 2.500E+001 3.000E+002 0.000E+000
node 9 5.000E+001 3.000E+002 0.000E+000
node 10 7.500E+001 3.000E+002 0.000E+000
node 11 1.000E+002 2.750E+002 0.000E+000
node 12 1.000E+002 2.500E+002 0.000E+000
node 13 1.000E+002 2.250E+002 0.000E+000
node 14 1.000E+002 1.750E+002 0.000E+000
node 15 1.000E+002 1.500E+002 0.000E+000
node 16 1.000E+002 1.250E+002 0.000E+000
node 17 1.250E+002 1.000E+002 0.000E+000
node 18 1.500E+002 1.000E+002 0.000E+000
node 19 1.750E+002 1.000E+002 0.000E+000
node 20 2.500E+001 1.000E+002 0.000E+000
# ... 1255 like lines cut
puts "rigidDiaphragm"
puts "node"
fix 1 1 1 1 1 1 1;
fix 2 1 1 1 1 1 1;
fix 3 1 1 1 1 1 1;
fix 4 1 1 1 1 1 1;
fix 5 1 1 1 1 1 1;
fix 6 1 1 1 1 1 1;
fix 7 1 1 1 1 1 1;
fix 8 1 1 1 1 1 1;
fix 9 1 1 1 1 1 1;
fix 10 1 1 1 1 1 1;
fix 11 1 1 1 1 1 1;
fix 12 1 1 1 1 1 1;
fix 13 1 1 1 1 1 1;
fix 14 1 1 1 1 1 1;
fix 15 1 1 1 1 1 1;
fix 16 1 1 1 1 1 1;
fix 17 1 1 1 1 1 1;
fix 18 1 1 1 1 1 1;
fix 19 1 1 1 1 1 1;
fix 20 1 1 1 1 1 1;
# ... 5 like lines cut
puts "Equal DOF"
puts "material"

nDMaterial ElasticIsotropic 1 205000 0.3  
uniaxialMaterial Elastic 2 2.482E+004
uniaxialMaterial Elastic 3 1.999E+005
##S20 
nDMaterial PlateFiber 601 1
section PlateFiber 701 601 20.00
##SLAB1 
puts "transformation"
puts "element"
puts "shell element"
element ShellNLDKGQ 1 1 8 151 152 701
element ShellNLDKGQ 2 152 151 153 154 701
element ShellNLDKGQ 3 154 153 155 156 701
element ShellNLDKGQ 4 156 155 157 158 701
element ShellNLDKGQ 5 158 157 159 160 701
element ShellNLDKGQ 6 160 159 161 162 701
element ShellNLDKGQ 7 162 161 163 164 701
element ShellNLDKGQ 8 164 163 165 166 701
element ShellNLDKGQ 9 166 165 167 168 701
element ShellNLDKGQ 10 168 167 26 27 701
element ShellNLDKGQ 11 27 26 169 170 701
element ShellNLDKGQ 12 170 169 171 172 701
element ShellNLDKGQ 13 172 171 173 174 701
element ShellNLDKGQ 14 174 173 175 176 701
element ShellNLDKGQ 15 176 175 177 178 701
element ShellNLDKGQ 16 178 177 179 180 701
element ShellNLDKGQ 17 180 179 181 182 701
element ShellNLDKGQ 18 182 181 183 184 701
element ShellNLDKGQ 19 184 183 185 186 701
element ShellNLDKGQ 20 186 185 28 29 701
# ... 1180 like lines cut
puts "SOLID element"
puts "recorder"
recorder Node -file node0.out -time -nodeRange 1 100 -dof 1 2 3 disp
recorder Node -file node1.out -time -nodeRange 101 200 -dof 1 2 3 disp
recorder Node -file node2.out -time -nodeRange 201 300 -dof 1 2 3 disp
recorder Node -file node3.out -time -nodeRange 301 400 -dof 1 2 3 disp
recorder Node -file node4.out -time -nodeRange 401 500 -dof 1 2 3 disp
recorder Node -file node5.out -time -nodeRange 501 600 -dof 1 2 3 disp
recorder Node -file node6.out -time -nodeRange 601 700 -dof 1 2 3 disp
recorder Node -file node7.out -time -nodeRange 701 800 -dof 1 2 3 disp
recorder Node -file node8.out -time -nodeRange 801 900 -dof 1 2 3 disp
recorder Node -file node9.out -time -nodeRange 901 1000 -dof 1 2 3 disp
recorder Node -file node10.out -time -nodeRange 1001 1100 -dof 1 2 3 disp
recorder Node -file node11.out -time -nodeRange 1101 1200 -dof 1 2 3 disp
recorder Node -file node12.out -time -nodeRange 1201 1275 -dof 1 2 3 disp

recorder Node -file node70.out -time -node 70 -dof 1 2 3 disp

puts "gravity"
## Load Case = PUSH
pattern Plain 3 Linear {
load 34 1.000E+003 0.000E+000 0.000E+000 0.000E+000 0.000E+000 0.000E+000
load 35 1.000E+003 0.000E+000 0.000E+000 0.000E+000 0.000E+000 0.000E+000
load 40 1.000E+003 0.000E+000 0.000E+000 0.000E+000 0.000E+000 0.000E+000
load 45 1.000E+003 0.000E+000 0.000E+000 0.000E+000 0.000E+000 0.000E+000
load 50 1.000E+003 0.000E+000 0.000E+000 0.000E+000 0.000E+000 0.000E+000
load 55 1.000E+003 0.000E+000 0.000E+000 0.000E+000 0.000E+000 0.000E+000
load 60 1.000E+003 0.000E+000 0.000E+000 0.000E+000 0.000E+000 0.000E+000
load 65 1.000E+003 0.000E+000 0.000E+000 0.000E+000 0.000E+000 0.000E+000
load 70 1.000E+003 0.000E+000 0.000E+000 0.000E+000 0.000E+000 0.000E+000
load 75 1.000E+003 0.000E+000 0.000E+000 0.000E+000 0.000E+000 0.000E+000
load 80 1.000E+003 0.000E+000 0.000E+000 0.000E+000 0.000E+000 0.000E+000
load 85 1.000E+003 0.000E+000 0.000E+000 0.000E+000 0.000E+000 0.000E+000
load 90 1.000E+003 0.000E+000 0.000E+000 0.000E+000 0.000E+000 0.000E+000
load 95 1.000E+003 0.000E+000 0.000E+000 0.000E+000 0.000E+000 0.000E+000
load 100 1.000E+003 0.000E+000 0.000E+000 0.000E+000 0.000E+000 0.000E+000
load 105 1.000E+003 0.000E+000 0.000E+000 0.000E+000 0.000E+000 0.000E+000
load 110 1.000E+003 0.000E+000 0.000E+000 0.000E+000 0.000E+000 0.000E+000
load 119 1.000E+003 0.000E+000 0.000E+000 0.000E+000 0.000E+000 0.000E+000
load 120 1.000E+003 0.000E+000 0.000E+000 0.000E+000 0.000E+000 0.000E+000
load 125 1.000E+003 0.000E+000 0.000E+000 0.000E+000 0.000E+000 0.000E+000
# ... 5 like lines cut
}



constraints Penalty 1e20 1e20;  
numberer RCM;					
system UmfPack
test NormDispIncr 1.0e-4 1000 2; 				
algorithm Linear
integrator LoadControl 0.07
analysis Static	;
analyze 1
puts "gravity analyze ok..."
loadConst -time 0.0;



## Load Case = DEAD
pattern Plain 1 Linear {
load 34 0.000E+000 0.000E+000 -1.000E+004 0.000E+000 0.000E+000 0.000E+000
load 35 0.000E+000 0.000E+000 -1.000E+004 0.000E+000 0.000E+000 0.000E+000
load 40 0.000E+000 0.000E+000 -1.000E+004 0.000E+000 0.000E+000 0.000E+000
load 45 0.000E+000 0.000E+000 -1.000E+004 0.000E+000 0.000E+000 0.000E+000
load 50 0.000E+000 0.000E+000 -1.000E+004 0.000E+000 0.000E+000 0.000E+000
load 55 0.000E+000 0.000E+000 -1.000E+004 0.000E+000 0.000E+000 0.000E+000
load 60 0.000E+000 0.000E+000 -1.000E+004 0.000E+000 0.000E+000 0.000E+000
load 65 0.000E+000 0.000E+000 -1.000E+004 0.000E+000 0.000E+000 0.000E+000
load 70 0.000E+000 0.000E+000 -1.000E+004 0.000E+000 0.000E+000 0.000E+000
load 75 0.000E+000 0.000E+000 -1.000E+004 0.000E+000 0.000E+000 0.000E+000
load 80 0.000E+000 0.000E+000 -1.000E+004 0.000E+000 0.000E+000 0.000E+000
load 85 0.000E+000 0.000E+000 -1.000E+004 0.000E+000 0.000E+000 0.000E+000
load 90 0.000E+000 0.000E+000 -1.000E+004 0.000E+000 0.000E+000 0.000E+000
load 95 0.000E+000 0.000E+000 -1.000E+004 0.000E+000 0.000E+000 0.000E+000
load 100 0.000E+000 0.000E+000 -1.000E+004 0.000E+000 0.000E+000 0.000E+000
load 105 0.000E+000 0.000E+000 -1.000E+004 0.000E+000 0.000E+000 0.000E+000
load 110 0.000E+000 0.000E+000 -1.000E+004 0.000E+000 0.000E+000 0.000E+000
load 119 0.000E+000 0.000E+000 -1.000E+004 0.000E+000 0.000E+000 0.000E+000
load 120 0.000E+000 0.000E+000 -1.000E+004 0.000E+000 0.000E+000 0.000E+000
load 125 0.000E+000 0.000E+000 -1.000E+004 0.000E+000 0.000E+000 0.000E+000
# ... 5 like lines cut
}
puts "analysis"

constraints Penalty 1e20 1e20;  
numberer RCM;					
system UmfPack
test NormDispIncr 1.0e-4 1000 2; 	
algorithm KrylovNewton;		
integrator DisplacementControl 70 3 -0.5
analysis Static
analyze 100

