wipe
puts "System"
model basic -ndm 3 -ndf 6
puts "restraint"
node 1 0.000E+000 1.200E+004 9.000E+003
node 2 0.000E+000 1.200E+004 1.200E+004
node 3 6.000E+003 1.200E+004 9.000E+003
node 4 6.000E+003 1.200E+004 1.200E+004
node 5 1.200E+004 1.200E+004 9.000E+003
node 6 1.200E+004 1.200E+004 1.200E+004
node 7 1.200E+004 6.000E+003 9.000E+003
node 8 1.200E+004 6.000E+003 1.200E+004
node 9 1.200E+004 0.000E+000 9.000E+003
node 10 1.200E+004 0.000E+000 1.200E+004
node 11 6.000E+003 0.000E+000 9.000E+003
node 12 6.000E+003 0.000E+000 1.200E+004
node 13 6.000E+003 6.000E+003 9.000E+003
node 14 6.000E+003 6.000E+003 1.200E+004
node 15 0.000E+000 0.000E+000 9.000E+003
node 16 0.000E+000 0.000E+000 1.200E+004
node 17 0.000E+000 6.000E+003 9.000E+003
node 18 0.000E+000 6.000E+003 1.200E+004
node 19 0.000E+000 1.200E+004 6.000E+003
node 20 6.000E+003 1.200E+004 6.000E+003
# ... 24 like lines cut
puts "rigidDiaphragm"
puts "mass"
mass 1 9.775E+000 9.775E+000 0.000E+000 0.000E+000 0.000E+000 0.000E+000
mass 2 8.857E+000 8.857E+000 0.000E+000 0.000E+000 0.000E+000 0.000E+000
mass 3 1.650E+001 1.650E+001 0.000E+000 0.000E+000 0.000E+000 0.000E+000
mass 4 1.558E+001 1.558E+001 0.000E+000 0.000E+000 0.000E+000 0.000E+000
mass 5 9.775E+000 9.775E+000 0.000E+000 0.000E+000 0.000E+000 0.000E+000
mass 6 8.857E+000 8.857E+000 0.000E+000 0.000E+000 0.000E+000 0.000E+000
mass 7 1.650E+001 1.650E+001 0.000E+000 0.000E+000 0.000E+000 0.000E+000
mass 8 1.558E+001 1.558E+001 0.000E+000 0.000E+000 0.000E+000 0.000E+000
mass 9 9.775E+000 9.775E+000 0.000E+000 0.000E+000 0.000E+000 0.000E+000
mass 10 8.857E+000 8.857E+000 0.000E+000 0.000E+000 0.000E+000 0.000E+000
mass 11 1.650E+001 1.650E+001 0.000E+000 0.000E+000 0.000E+000 0.000E+000
mass 12 1.558E+001 1.558E+001 0.000E+000 0.000E+000 0.000E+000 0.000E+000
mass 13 2.874E+001 2.874E+001 0.000E+000 0.000E+000 0.000E+000 0.000E+000
mass 14 2.782E+001 2.782E+001 0.000E+000 0.000E+000 0.000E+000 0.000E+000
mass 15 9.775E+000 9.775E+000 0.000E+000 0.000E+000 0.000E+000 0.000E+000
mass 16 8.857E+000 8.857E+000 0.000E+000 0.000E+000 0.000E+000 0.000E+000
mass 17 1.650E+001 1.650E+001 0.000E+000 0.000E+000 0.000E+000 0.000E+000
mass 18 1.558E+001 1.558E+001 0.000E+000 0.000E+000 0.000E+000 0.000E+000
mass 19 9.775E+000 9.775E+000 0.000E+000 0.000E+000 0.000E+000 0.000E+000
mass 20 1.650E+001 1.650E+001 0.000E+000 0.000E+000 0.000E+000 0.000E+000
# ... 24 like lines cut
puts "node"
fix 37 1 1 1 0 0 0;
fix 38 1 1 1 0 0 0;
fix 39 1 1 1 0 0 0;
fix 40 1 1 1 0 0 0;
fix 41 1 1 1 0 0 0;
fix 42 1 1 1 0 0 0;
fix 43 1 1 1 0 0 0;
fix 44 1 1 1 0 0 0;
puts "Equal DOF"
puts "material"

uniaxialMaterial Steel01 1 300 206000 0.01 
uniaxialMaterial Concrete02 2 -20.0 -0.002 -5 -0.0033 0.1 2.2 1100


uniaxialMaterial Elastic 3 1.999E+005
uniaxialMaterial Elastic 201 2.170E+009
uniaxialMaterial Elastic 301 2.170E+009
uniaxialMaterial Elastic 401 9.169E+013
uniaxialMaterial Elastic 202 1.562E+009
uniaxialMaterial Elastic 302 1.562E+009
uniaxialMaterial Elastic 402 3.862E+013
##NC500X500 
section Fiber 1 {
fiber -2.000E+002 -2.000E+002 1.000E+004 2
fiber -1.000E+002 -2.000E+002 1.000E+004 2
fiber 0.000E+000 -2.000E+002 1.000E+004 2
fiber 1.000E+002 -2.000E+002 1.000E+004 2
fiber 2.000E+002 -2.000E+002 1.000E+004 2
fiber -2.000E+002 -1.000E+002 1.000E+004 2
fiber -1.000E+002 -1.000E+002 1.000E+004 2
fiber 0.000E+000 -1.000E+002 1.000E+004 2
fiber 1.000E+002 -1.000E+002 1.000E+004 2
fiber 2.000E+002 -1.000E+002 1.000E+004 2
fiber -2.000E+002 0.000E+000 1.000E+004 2
fiber -1.000E+002 0.000E+000 1.000E+004 2
fiber 0.000E+000 0.000E+000 1.000E+004 2
fiber 1.000E+002 0.000E+000 1.000E+004 2
fiber 2.000E+002 0.000E+000 1.000E+004 2
fiber -2.000E+002 1.000E+002 1.000E+004 2
fiber -1.000E+002 1.000E+002 1.000E+004 2
fiber 0.000E+000 1.000E+002 1.000E+004 2
fiber 1.000E+002 1.000E+002 1.000E+004 2
fiber 2.000E+002 1.000E+002 1.000E+004 2
# ... 21 like lines cut
}
##NB300X600 
section Fiber 2 {
fiber -1.200E+002 -2.400E+002 7.200E+003 2
fiber -6.000E+001 -2.400E+002 7.200E+003 2
fiber 0.000E+000 -2.400E+002 7.200E+003 2
fiber 6.000E+001 -2.400E+002 7.200E+003 2
fiber 1.200E+002 -2.400E+002 7.200E+003 2
fiber -1.200E+002 -1.200E+002 7.200E+003 2
fiber -6.000E+001 -1.200E+002 7.200E+003 2
fiber 0.000E+000 -1.200E+002 7.200E+003 2
fiber 6.000E+001 -1.200E+002 7.200E+003 2
fiber 1.200E+002 -1.200E+002 7.200E+003 2
fiber -1.200E+002 0.000E+000 7.200E+003 2
fiber -6.000E+001 0.000E+000 7.200E+003 2
fiber 0.000E+000 0.000E+000 7.200E+003 2
fiber 6.000E+001 0.000E+000 7.200E+003 2
fiber 1.200E+002 0.000E+000 7.200E+003 2
fiber -1.200E+002 1.200E+002 7.200E+003 2
fiber -6.000E+001 1.200E+002 7.200E+003 2
fiber 0.000E+000 1.200E+002 7.200E+003 2
fiber 6.000E+001 1.200E+002 7.200E+003 2
fiber 1.200E+002 1.200E+002 7.200E+003 2
# ... 11 like lines cut
}
section Aggregator 1001 201 Vy 301 Vz 401 T -section 1
section Aggregator 1002 202 Vy 302 Vz 402 T -section 2

##WALL1 

puts "transformation"
geomTransf Linear 1 1.000 0.000 0.000 
geomTransf Linear 2 1.000 0.000 0.000 
geomTransf Linear 3 1.000 0.000 0.000 
geomTransf Linear 4 1.000 0.000 0.000 
geomTransf Linear 5 1.000 0.000 0.000 
geomTransf Linear 6 1.000 0.000 0.000 
geomTransf Linear 7 1.000 0.000 0.000 
geomTransf Linear 8 1.000 0.000 0.000 
geomTransf Linear 9 1.000 0.000 0.000 
geomTransf Linear 10 0.000 0.000 1.000 
geomTransf Linear 11 0.000 0.000 1.000 
geomTransf Linear 12 0.000 0.000 1.000 
geomTransf Linear 13 0.000 0.000 1.000 
geomTransf Linear 14 0.000 0.000 1.000 
geomTransf Linear 15 0.000 0.000 1.000 
geomTransf Linear 16 0.000 0.000 1.000 
geomTransf Linear 17 0.000 0.000 1.000 
geomTransf Linear 18 0.000 0.000 1.000 
geomTransf Linear 19 0.000 0.000 1.000 
geomTransf Linear 20 0.000 0.000 1.000 
# ... 63 like lines cut
puts "element"
element nonlinearBeamColumn 1 1 2 3 1001 1
element nonlinearBeamColumn 2 3 4 3 1001 2
element nonlinearBeamColumn 3 5 6 3 1001 3
element nonlinearBeamColumn 4 7 8 3 1001 4
element nonlinearBeamColumn 5 9 10 3 1001 5
element nonlinearBeamColumn 6 11 12 3 1001 6
element nonlinearBeamColumn 7 13 14 3 1001 7
element nonlinearBeamColumn 8 15 16 3 1001 8
element nonlinearBeamColumn 9 17 18 3 1001 9
element nonlinearBeamColumn 10 16 18 3 1002 10
element nonlinearBeamColumn 11 18 2 3 1002 11
element nonlinearBeamColumn 12 12 14 3 1002 12
element nonlinearBeamColumn 13 14 4 3 1002 13
element nonlinearBeamColumn 14 10 8 3 1002 14
element nonlinearBeamColumn 15 8 6 3 1002 15
element nonlinearBeamColumn 16 16 12 3 1002 16
element nonlinearBeamColumn 17 12 10 3 1002 17
element nonlinearBeamColumn 18 18 14 3 1002 18
element nonlinearBeamColumn 19 14 8 3 1002 19
element nonlinearBeamColumn 20 2 4 3 1002 20
# ... 63 like lines cut
puts "shell element"
puts "SOLID element"
puts "recorder"
recorder Node -file node35.out -time -node 35 -dof 1 2 3 disp
puts "loading"
## Load Case = DL
pattern Plain 1 Linear {
load 35 0.000E+000 0.000E+000 3.000E+005 0.000E+000 0.000E+000 0.000E+000
eleLoad -ele 11 -type -beamUniform 0 -6.375E+000 0
eleLoad -ele 11 -type -beamUniform 0 -6.375E+000 0
eleLoad -ele 18 -type -beamUniform 0 -6.375E+000 0
eleLoad -ele 18 -type -beamUniform 0 -6.375E+000 0
eleLoad -ele 13 -type -beamUniform 0 -6.375E+000 0
eleLoad -ele 13 -type -beamUniform 0 -6.375E+000 0
eleLoad -ele 20 -type -beamUniform 0 -6.375E+000 0
eleLoad -ele 20 -type -beamUniform 0 -6.375E+000 0
eleLoad -ele 13 -type -beamUniform 0 -6.375E+000 0
eleLoad -ele 13 -type -beamUniform 0 -6.375E+000 0
eleLoad -ele 19 -type -beamUniform 0 -6.375E+000 0
eleLoad -ele 19 -type -beamUniform 0 -6.375E+000 0
eleLoad -ele 15 -type -beamUniform 0 -6.375E+000 0
eleLoad -ele 15 -type -beamUniform 0 -6.375E+000 0
eleLoad -ele 21 -type -beamUniform 0 -6.375E+000 0
eleLoad -ele 21 -type -beamUniform 0 -6.375E+000 0
eleLoad -ele 12 -type -beamUniform 0 -6.375E+000 0
eleLoad -ele 12 -type -beamUniform 0 -6.375E+000 0
eleLoad -ele 17 -type -beamUniform 0 -6.375E+000 0
eleLoad -ele 17 -type -beamUniform 0 -6.375E+000 0
# ... 108 like lines cut
}
puts "analysis"
constraints Plain
numberer Plain
system BandGeneral
test EnergyIncr 1.0e-6 200
algorithm Newton
integrator LoadControl 0.1
analysis Static
analyze 10


loadConst  -time 0
pattern Plain 2 Linear {
load 35 0.000E+000 0.000E+000 -3.000E+005 0.000E+000 0.000E+000 0.000E+000
}
puts "analysis"
constraints Plain
numberer Plain
system BandGeneral
test EnergyIncr 1.0e-6 200
algorithm Newton
integrator LoadControl 0.01
analysis Static
analyze 100


