wipe
puts "System"
model basic -ndm 3 -ndf 6
puts "restraint"
node 1 1.500E+003 0.000E+000 0.000E+000
node 2 0.000E+000 0.000E+000 0.000E+000
node 3 1.200E+003 0.000E+000 0.000E+000
node 4 9.000E+002 0.000E+000 0.000E+000
node 5 6.000E+002 0.000E+000 0.000E+000
node 6 3.000E+002 0.000E+000 0.000E+000
node 7 1.200E+003 0.000E+000 6.000E+002
node 8 1.500E+003 0.000E+000 6.000E+002
node 9 1.200E+003 0.000E+000 1.200E+003
node 10 1.500E+003 0.000E+000 1.200E+003
node 11 1.200E+003 0.000E+000 1.800E+003
node 12 1.500E+003 0.000E+000 1.800E+003
node 13 1.200E+003 0.000E+000 2.400E+003
node 14 1.500E+003 0.000E+000 2.400E+003
node 15 1.200E+003 0.000E+000 3.000E+003
node 16 1.500E+003 0.000E+000 3.000E+003
node 17 1.200E+003 0.000E+000 3.600E+003
node 18 1.500E+003 0.000E+000 3.600E+003
node 19 1.200E+003 0.000E+000 4.200E+003
node 20 1.500E+003 0.000E+000 4.200E+003
# ... 46 like lines cut
puts "rigidDiaphragm"
puts "mass"
mass 1 2.161E-002 2.161E-002 0.000E+000 0.000E+000 0.000E+000 0.000E+000
mass 2 2.161E-002 2.161E-002 0.000E+000 0.000E+000 0.000E+000 0.000E+000
mass 3 4.322E-002 4.322E-002 0.000E+000 0.000E+000 0.000E+000 0.000E+000
mass 4 4.322E-002 4.322E-002 0.000E+000 0.000E+000 0.000E+000 0.000E+000
mass 5 4.322E-002 4.322E-002 0.000E+000 0.000E+000 0.000E+000 0.000E+000
mass 6 4.322E-002 4.322E-002 0.000E+000 0.000E+000 0.000E+000 0.000E+000
mass 7 8.644E-002 8.644E-002 0.000E+000 0.000E+000 0.000E+000 0.000E+000
mass 8 4.322E-002 4.322E-002 0.000E+000 0.000E+000 0.000E+000 0.000E+000
mass 9 8.644E-002 8.644E-002 0.000E+000 0.000E+000 0.000E+000 0.000E+000
mass 10 4.322E-002 4.322E-002 0.000E+000 0.000E+000 0.000E+000 0.000E+000
mass 11 8.644E-002 8.644E-002 0.000E+000 0.000E+000 0.000E+000 0.000E+000
mass 12 4.322E-002 4.322E-002 0.000E+000 0.000E+000 0.000E+000 0.000E+000
mass 13 8.644E-002 8.644E-002 0.000E+000 0.000E+000 0.000E+000 0.000E+000
mass 14 4.322E-002 4.322E-002 0.000E+000 0.000E+000 0.000E+000 0.000E+000
mass 15 8.644E-002 8.644E-002 0.000E+000 0.000E+000 0.000E+000 0.000E+000
mass 16 4.322E-002 4.322E-002 0.000E+000 0.000E+000 0.000E+000 0.000E+000
mass 17 8.644E-002 8.644E-002 0.000E+000 0.000E+000 0.000E+000 0.000E+000
mass 18 4.322E-002 4.322E-002 0.000E+000 0.000E+000 0.000E+000 0.000E+000
mass 19 8.644E-002 8.644E-002 0.000E+000 0.000E+000 0.000E+000 0.000E+000
mass 20 4.322E-002 4.322E-002 0.000E+000 0.000E+000 0.000E+000 0.000E+000
# ... 46 like lines cut
puts "node"
fix 1 1 1 1 1 1 1;
fix 2 1 1 1 1 1 1;
fix 3 1 1 1 1 1 1;
fix 4 1 1 1 1 1 1;
fix 5 1 1 1 1 1 1;
fix 6 1 1 1 1 1 1;
fix 7 0 0 0 1 1 1;
fix 8 0 0 0 1 1 1;
fix 9 0 0 0 1 1 1;
fix 10 0 0 0 1 1 1;
fix 11 0 0 0 1 1 1;
fix 12 0 0 0 1 1 1;
fix 13 0 0 0 1 1 1;
fix 14 0 0 0 1 1 1;
fix 15 0 0 0 1 1 1;
fix 16 0 0 0 1 1 1;
fix 17 0 0 0 1 1 1;
fix 18 0 0 0 1 1 1;
fix 19 0 0 0 1 1 1;
fix 20 0 0 0 1 1 1;
# ... 46 like lines cut
puts "Equal DOF"
puts "material"
nDMaterial PlaneStressUserMaterial   2       40         7       30.6549  3.06549  -6.13 -0.002 -0.05 0.001 0.05
nDMaterial   PlateFromPlaneStress    4                  2                12.77e9
uniaxialMaterial Steel02 5 582 205000 0.0033 14 0.925 0.15
uniaxialMaterial Steel02 6 441 205000 0.00127 14 0.925 0.15


nDMaterial   PlateRebar       7                    5    90
nDMaterial   PlateRebar       8                    6    0


section   LayeredShell 701 6 8 0.8 7 0.80 4 100 4 100 7 0.80   8 0.8

puts "transformation"
puts "element"
puts "shell element"
element ShellDKGQ 1 1 3 7 8 701
element ShellDKGQ 2 8 7 9 10 701
element ShellDKGQ 3 10 9 11 12 701
element ShellDKGQ 4 12 11 13 14 701
element ShellDKGQ 5 14 13 15 16 701
element ShellDKGQ 6 16 15 17 18 701
element ShellDKGQ 7 18 17 19 20 701
element ShellDKGQ 8 20 19 21 22 701
element ShellDKGQ 9 22 21 23 24 701
element ShellDKGQ 10 24 23 25 26 701
element ShellDKGQ 11 3 4 27 7 701
element ShellDKGQ 12 7 27 28 9 701
element ShellDKGQ 13 9 28 29 11 701
element ShellDKGQ 14 11 29 30 13 701
element ShellDKGQ 15 13 30 31 15 701
element ShellDKGQ 16 15 31 32 17 701
element ShellDKGQ 17 17 32 33 19 701
element ShellDKGQ 18 19 33 34 21 701
element ShellDKGQ 19 21 34 35 23 701
element ShellDKGQ 20 23 35 36 25 701
# ... 30 like lines cut
puts "SOLID element"
puts "recorder"

puts "gravity"
## Load Case = DEAD
pattern Plain 2 Linear {
load 25 0.000E+000 0.000E+000 -1.000E+005 0.000E+000 0.000E+000 0.000E+000
load 26 0.000E+000 0.000E+000 -1.000E+005 0.000E+000 0.000E+000 0.000E+000
load 36 0.000E+000 0.000E+000 -1.000E+005 0.000E+000 0.000E+000 0.000E+000
load 46 0.000E+000 0.000E+000 -1.000E+005 0.000E+000 0.000E+000 0.000E+000
load 56 0.000E+000 0.000E+000 -1.000E+005 0.000E+000 0.000E+000 0.000E+000
load 66 0.000E+000 0.000E+000 -1.000E+005 0.000E+000 0.000E+000 0.000E+000
}
puts "analysis"
constraints Plain
numberer Plain
system BandGeneral
test EnergyIncr 1.0e-6 200
algorithm Newton
integrator LoadControl 1.000E-002
analysis Static
analyze 10

loadConst 0

puts "pushover"
## Load Case = PUSH
pattern Plain 1 Linear {
load 25 1.000E+005 0.000E+000 0.000E+000 0.000E+000 0.000E+000 0.000E+000
load 26 1.000E+005 0.000E+000 0.000E+000 0.000E+000 0.000E+000 0.000E+000
load 36 1.000E+005 0.000E+000 0.000E+000 0.000E+000 0.000E+000 0.000E+000
load 46 1.000E+005 0.000E+000 0.000E+000 0.000E+000 0.000E+000 0.000E+000
load 56 1.000E+005 0.000E+000 0.000E+000 0.000E+000 0.000E+000 0.000E+000
load 66 1.000E+005 0.000E+000 0.000E+000 0.000E+000 0.000E+000 0.000E+000
}


recorder Node    -file D66.txt     -time   -node       1 2 3 4 5 66   -dof 1 2 3 disp
recorder Node -file node0.out -time -nodeRange 1 66 -dof 1 2 3 disp

constraints Penalty 1e20 1e20;	
numberer Plain;					
system BandGeneral;		
test NormDispIncr 1.0e-4 2000 2;
algorithm KrylovNewton 
integrator DisplacementControl 66 1 0.1
analysis Static
analyze 200

