wipe
puts "System"
model basic -ndm 3 -ndf 6
puts "restraint"
node 1 0.000E+000 0.000E+000 0.000E+000
node 2 6.000E+003 0.000E+000 0.000E+000
node 3 6.000E+003 0.000E+000 3.000E+003
node 4 0.000E+000 0.000E+000 3.000E+003
node 5 1.200E+003 0.000E+000 0.000E+000
node 6 1.200E+003 0.000E+000 6.000E+002
node 7 0.000E+000 0.000E+000 6.000E+002
node 8 1.200E+003 0.000E+000 1.200E+003
node 9 0.000E+000 0.000E+000 1.200E+003
node 10 1.200E+003 0.000E+000 1.800E+003
node 11 0.000E+000 0.000E+000 1.800E+003
node 12 1.200E+003 0.000E+000 2.400E+003
node 13 0.000E+000 0.000E+000 2.400E+003
node 14 1.200E+003 0.000E+000 3.000E+003
node 15 2.400E+003 0.000E+000 0.000E+000
node 16 2.400E+003 0.000E+000 6.000E+002
node 17 2.400E+003 0.000E+000 1.200E+003
node 18 2.400E+003 0.000E+000 1.800E+003
node 19 2.400E+003 0.000E+000 2.400E+003
node 20 2.400E+003 0.000E+000 3.000E+003
# ... 101 like lines cut
puts "rigidDiaphragm"
puts "mass"
mass 1 3.241E-001 3.241E-001 0.000E+000 0.000E+000 0.000E+000 0.000E+000
mass 2 3.241E-001 3.241E-001 0.000E+000 0.000E+000 0.000E+000 0.000E+000
mass 3 3.241E-001 3.241E-001 0.000E+000 0.000E+000 0.000E+000 0.000E+000
mass 4 3.241E-001 3.241E-001 0.000E+000 0.000E+000 0.000E+000 0.000E+000
mass 5 6.483E-001 6.483E-001 0.000E+000 0.000E+000 0.000E+000 0.000E+000
mass 14 6.483E-001 6.483E-001 0.000E+000 0.000E+000 0.000E+000 0.000E+000
mass 15 6.483E-001 6.483E-001 0.000E+000 0.000E+000 0.000E+000 0.000E+000
mass 20 6.483E-001 6.483E-001 0.000E+000 0.000E+000 0.000E+000 0.000E+000
mass 21 6.483E-001 6.483E-001 0.000E+000 0.000E+000 0.000E+000 0.000E+000
mass 26 6.483E-001 6.483E-001 0.000E+000 0.000E+000 0.000E+000 0.000E+000
mass 27 6.483E-001 6.483E-001 0.000E+000 0.000E+000 0.000E+000 0.000E+000
mass 32 6.483E-001 6.483E-001 0.000E+000 0.000E+000 0.000E+000 0.000E+000
mass 37 6.483E-001 6.483E-001 0.000E+000 0.000E+000 0.000E+000 0.000E+000
mass 56 6.483E-001 6.483E-001 0.000E+000 0.000E+000 0.000E+000 0.000E+000
mass 58 6.483E-001 6.483E-001 0.000E+000 0.000E+000 0.000E+000 0.000E+000
mass 72 6.483E-001 6.483E-001 0.000E+000 0.000E+000 0.000E+000 0.000E+000
mass 74 6.483E-001 6.483E-001 0.000E+000 0.000E+000 0.000E+000 0.000E+000
mass 88 6.483E-001 6.483E-001 0.000E+000 0.000E+000 0.000E+000 0.000E+000
mass 90 6.483E-001 6.483E-001 0.000E+000 0.000E+000 0.000E+000 0.000E+000
mass 104 6.483E-001 6.483E-001 0.000E+000 0.000E+000 0.000E+000 0.000E+000
mass 106 6.483E-001 6.483E-001 0.000E+000 0.000E+000 0.000E+000 0.000E+000
mass 120 6.483E-001 6.483E-001 0.000E+000 0.000E+000 0.000E+000 0.000E+000
puts "node"
fix 1 1 1 1 1 1 1;
fix 2 1 1 1 1 1 1;
fix 3 0 0 0 1 1 1;
fix 4 0 0 0 1 1 1;
fix 5 1 1 1 1 1 1;
fix 6 0 0 0 1 1 1;
fix 7 0 0 0 1 1 1;
fix 8 0 0 0 1 1 1;
fix 9 0 0 0 1 1 1;
fix 10 0 0 0 1 1 1;
fix 11 0 0 0 1 1 1;
fix 12 0 0 0 1 1 1;
fix 13 0 0 0 1 1 1;
fix 14 0 0 0 1 1 1;
fix 15 1 1 1 1 1 1;
fix 16 0 0 0 1 1 1;
fix 17 0 0 0 1 1 1;
fix 18 0 0 0 1 1 1;
fix 19 0 0 0 1 1 1;
fix 20 0 0 0 1 1 1;
# ... 101 like lines cut
puts "Equal DOF"
puts "material"
uniaxialMaterial Elastic 1 1.999E+005
nDMaterial ElasticIsotropic  2  2.482E+004  0.2
uniaxialMaterial Elastic 3 1.999E+005

##W300 
nDMaterial PlateFiber 601 2
section PlateFiber 701 601 300.00
##SLAB1 
nDMaterial PlateFiber 602 2
section PlateFiber 702 602 250.00
puts "transformation"
puts "element"
puts "shell element"
element ShellMITC4 1 1 37 38 39 701
element ShellMITC4 2 39 38 40 7 701
element ShellMITC4 3 37 5 41 38 701
element ShellMITC4 4 38 41 6 40 701
element ShellMITC4 5 7 40 42 43 701
element ShellMITC4 6 43 42 44 9 701
element ShellMITC4 7 40 6 45 42 701
element ShellMITC4 8 42 45 8 44 701
element ShellMITC4 9 9 44 46 47 701
element ShellMITC4 10 47 46 48 11 701
element ShellMITC4 11 44 8 49 46 701
element ShellMITC4 12 46 49 10 48 701
element ShellMITC4 13 11 48 50 51 701
element ShellMITC4 14 51 50 52 13 701
element ShellMITC4 15 48 10 53 50 701
element ShellMITC4 16 50 53 12 52 701
element ShellMITC4 17 13 52 54 55 701
element ShellMITC4 18 55 54 56 4 701
element ShellMITC4 19 52 12 57 54 701
element ShellMITC4 20 54 57 14 56 701
# ... 80 like lines cut
puts "SOLID element"
puts "recorder"
recorder Node -file node0.out -time -nodeRange 1 100 -dof 1 2 3 disp
recorder Node -file node1.out -time -nodeRange 101 121 -dof 1 2 3 disp
recorder Node -file node88.out -time -node  88  -dof 1 2 3 disp
puts "loading"
## Load Case = DEAD
pattern Plain 1 Linear {
load 14 0.000E+000 0.000E+000 -1.000E+006 0.000E+000 0.000E+000 0.000E+000
load 20 0.000E+000 0.000E+000 -1.000E+006 0.000E+000 0.000E+000 0.000E+000
load 26 0.000E+000 0.000E+000 -1.000E+006 0.000E+000 0.000E+000 0.000E+000
load 32 0.000E+000 0.000E+000 -1.000E+006 0.000E+000 0.000E+000 0.000E+000
load 56 0.000E+000 0.000E+000 -1.000E+006 0.000E+000 0.000E+000 0.000E+000
load 72 0.000E+000 0.000E+000 -1.000E+006 0.000E+000 0.000E+000 0.000E+000
load 88 0.000E+000 0.000E+000 -1.000E+006 0.000E+000 0.000E+000 0.000E+000
load 104 0.000E+000 0.000E+000 -1.000E+006 0.000E+000 0.000E+000 0.000E+000
load 120 0.000E+000 0.000E+000 -1.000E+006 0.000E+000 0.000E+000 0.000E+000
}
puts "analysis"
constraints Plain
numberer Plain
system BandGeneral
test EnergyIncr 1.0e-6 200
algorithm Newton
integrator LoadControl 0.1
analysis Static
analyze 10


loadConst 0


pattern Plain 2 Linear {

}

constraints Transformation
test        NormDispIncr 1e-4 60 1
algorithm   KrylovNewton
numberer    RCM
system      SparseGeneral
integrator  LoadControl 1
analysis    Static


remove element 32
analyze 4
remove element 50
analyze 4
remove element 52
analyze 4
remove element 70
analyze 4
remove element 31
analyze 4
remove element 49
fix 67 1 1 1 1 1 1
analyze 4
remove element 51
fix 81 1 1 1 1 1 1
analyze 4
remove element 69
fix 83 1 1 1 1 1 1
analyze 4



