###################################################################################################
# JP3 Parametric Study - Phase 1 - SSC Site Response Analysis with Elastic Half-space
# 
# AnalysisID: "ModelConfig_id48_SSC_SRA WithinMotion"
# 
# Model Config. id: 48
# 
# Ground Motion ids: [234 84 41 142 124 8 35 72 111 135 135]
# 
# copyright: Caroline Bessette, University of Colorado Boulder, 04/17/2024 00:22
###################################################################################################
#--------------------------------------------------------------------------------------------------
#          00 - Set Up & Source Definition
#--------------------------------------------------------------------------------------------------

wipe
set startTime [clock clicks -milliseconds]

# Ground motion information
set matGMid {234 84 41 142 124 8 35 72 111 135 149 0}
set matGMDT {0.005 0.005 0.005 0.005 0.005 0.005 0.005 0.01 0.005 0.005 0.004 0}
set matGMdur {185 185 185 185 185 185 185 185 185 185 185 0}
set matGMdur1 {45 43 51 24 75 43 43 40 79 58 32 0}
set matGMdur2 {140 142 134 161 110 142 142 145 106 127 153 0}

for {set index 1} {$index < [llength $matGMid]} {incr index} {
	set idgmi $index
	puts "idgmi: $idgmi"
	puts "idgm: [lindex $matGMid $index-1]"
	set fileORID [concat "vel_idgm[lindex $matGMid $idgmi-1]"]
	puts "fileORID: $fileORID"
	set fileWMID [concat "acc_idgm[lindex $matGMid $idgmi-1]_0"]
	puts "fileWMID: $fileWMID"
	set mpcorec [concat "SSC_WM_idgm[lindex $matGMid $idgmi-1]"]

	#--------------------------------------------------------------------------------------------------
	#          1 - DEFINE NODES
	#--------------------------------------------------------------------------------------------------

	# Soil Nodes
	model basic -ndm 3 -ndf 4
	# tag x y z
	node 1 0 1 16.5
	node 2 0 0 16.5
	node 3 1 0 16.5
	node 4 1 1 16.5
	node 5 0 1 17.5
	node 6 0 0 17.5
	node 7 1 0 17.5
	node 8 1 1 17.5
	node 21 0 1 15.5
	node 22 0 0 15.5
	node 23 1 0 15.5
	node 24 1 1 15.5
	node 33 0 1 15
	node 34 0 0 15
	node 35 1 0 15
	node 36 1 1 15
	node 45 0 1 14.5
	node 46 0 0 14.5
	node 47 1 0 14.5
	node 48 1 1 14.5
# ... 64 like lines cut

	model basic -ndm 3 -ndf 3
	# tag x y z
	node 9 0 0.5 16.5
	node 10 0.5 0 16.5
	node 11 1 0.5 16.5
	node 12 0.5 1 16.5
	node 13 0 0.5 17.5
	node 14 0.5 0 17.5
	node 15 1 0.5 17.5
	node 16 0.5 1 17.5
	node 17 0 1 17
	node 18 0 0 17
	node 19 1 0 17
	node 20 1 1 17
	node 25 0 0.5 15.5
	node 26 0.5 0 15.5
	node 27 1 0.5 15.5
	node 28 0.5 1 15.5
	node 29 0 1 16
	node 30 0 0 16
	node 31 1 0 16
	node 32 1 1 16
# ... 144 like lines cut

	puts "Finished creating all soil nodes..."

	#--------------------------------------------------------------------------------------------------
	#          2 - MATERIALS
	#--------------------------------------------------------------------------------------------------

	# Ottawa Sand Material - Saturated
	nDMaterial PressureDependMultiYield02 30 3 1.92 78000.0 203410.0 30.0 0.1 101.0 0.5 26.0 0.75 1.61 0.01 0.21 20 2.4 3.0 1.0 0.0 0.733 0.9 0.02 0.7 101.0 0.1 0.0 1.0
	nDMaterial PressureDependMultiYield02 40 3 1.94 82000.0 213843.0 31.0 0.1 101.0 0.5 26.8 0.61 2.24 0.097 0.27 20 3.8 3.0 1.0 0.0 0.675 0.9 0.02 0.7 101.0 0.1 0.0 1.0
	nDMaterial PressureDependMultiYield02 50 3 1.96 85500.0 222970.0 32.0 0.1 101.0 0.5 29.5 0.48 2.87 0.89 0.33 20 3.8 3.0 1.0 0.0 0.675 0.9 0.02 0.7 101.0 0.1 0.0 1.0
	nDMaterial PressureDependMultiYield02 60 3 1.98 90000.0 234702.0 33.6 0.1 101.0 0.5 31.0 0.34 3.5 1.69 0.39 20 4.5 3.0 1.0 0.0 0.646 0.9 0.02 0.7 101.0 0.1 0.0 1.0
	nDMaterial PressureDependMultiYield02 70 3 1.99 94000.0 1.8727e+05 36.25 0.1 101.0 0.5 33.7 0.21 4.14 2.48 0.45 20 5.2 3.0 1.0 0.0 0.617 0.9 0.02 0.7 101.0 0.1 0.0 1.0
	nDMaterial PressureDependMultiYield02 80 3 2.01 99500.0 1.9823e+05 37.325 0.1 101.0 0.5 33.85 0.145 2.77 1.8 0.75 20 3.18 3.0 1.0 0.0 0.588 0.9 0.02 0.7 101.0 0.1 0.0 1.0
	nDMaterial PressureDependMultiYield02 90 3 2.03 105000.0 209186.0 38.5 0.1 101.0 0.5 34.0 0.076 1.36 1.12 1.05 20 1.25 3.0 1.0 0.0 0.55 0.9 0.02 0.7 101.0 0.1 0.0 1.0

	# Ottawa Sand Material - Dry
	nDMaterial PressureDependMultiYield02 31 3 1.53 78000.0 203410.0 30.0 0.1 101.0 0.5 26.0 0.75 1.61 0.01 0.21 20 2.4 3.0 1.0 0.0 0.733 0.9 0.02 0.7 101.0 2.0 0.0 1.0
	nDMaterial PressureDependMultiYield02 41 3 1.56 82000.0 213843.0 31.0 0.1 101.0 0.5 26.8 0.61 2.24 0.097 0.27 20 3.8 3.0 1.0 0.0 0.675 0.9 0.02 0.7 101.0 2.0 0.0 1.0
	nDMaterial PressureDependMultiYield02 51 3 1.58 85500.0 222970.0 32.0 0.1 101.0 0.5 29.5 0.48 2.87 0.89 0.33 20 3.8 3.0 1.0 0.0 0.675 0.9 0.02 0.7 101.0 2.0 0.0 1.0
	nDMaterial PressureDependMultiYield02 61 3 1.60 90000.0 234702.0 33.6 0.1 101.0 0.5 31.0 0.34 3.5 1.69 0.39 20 4.5 3.0 1.0 0.0 0.646 0.9 0.02 0.7 101.0 2.0 0.0 1.0
	nDMaterial PressureDependMultiYield02 71 3 1.64 94000.0 1.8727e+05 36.25 0.1 101.0 0.5 33.7 0.21 4.14 2.48 0.45 20 5.2 3.0 1.0 0.0 0.617 0.9 0.02 0.7 101.0 2.0 0.0 1.0
	nDMaterial PressureDependMultiYield02 81 3 1.67 99500.0 1.9823e+05 37.325 0.1 101.0 0.5 33.85 0.145 2.77 1.8 0.75 20 3.18 3.0 1.0 0.0 0.588 0.9 0.02 0.7 101.0 2.0 0.0 1.0
	nDMaterial PressureDependMultiYield02 91 3 1.70 105000.0 209186.0 38.5 0.1 101.0 0.5 34.0 0.076 1.36 1.12 1.05 20 1.25 3.0 1.0 0.0 0.55 0.9 0.02 0.7 101.0 2.0 0.0 1.0

	# Monterey Sand Material - Sat/Dry
	nDMaterial PressureDependMultiYield02 10 3 2.02 133000.0 260000.0 42.0 0.1 101.0 0.5 32.0 0.014 0.15 0.36 0.005 20 2.0 3.0 1.0 0.0 0.56 0.9 0.02 0.7 101.0 0.1 0.0 1.0
	nDMaterial PressureDependMultiYield02 11 3 1.68 133000.0 260000.0 42.0 0.1 101.0 0.5 32.0 0.014 0.15 0.36 0.005 20 2.0 3.0 1.0 0.0 0.56 0.9 0.02 0.7 101.0 2.0 0.0 1.0

	# Silica silt Material - Sat/Dry
	nDMaterial PressureDependMultiYield02 20 3 2.02 87600.0 233800.0 41.0 0.1 101.0 0.5 36.0 0.3 0.15 0.02 0.0 20 5.0 3.0 1.0 0.0 0.88 0.9 0.02 0.7 101.0 0.1 0.0 1.0
	nDMaterial PressureDependMultiYield02 21 3 1.41 87600.0 233800.0 41.0 0.1 101.0 0.5 36.0 0.3 0.15 0.02 0.0 20 5.0 3.0 1.0 0.0 0.88 0.9 0.02 0.7 101.0 2.0 0.0 1.0

	# Stiff clay - Sat/Dry
	nDMaterial PressureIndependMultiYield 104 3 1.80 150000 750000 75 0.1 0 80 0 20

	# Medium clay - Sat/Dry
	nDMaterial PressureIndependMultiYield 105 3 1.5 60000 300000 37 0.1 0 80 0 20

	puts "Finished creating all soil materials..."

	#--------------------------------------------------------------------------------------------------
	#          3 - ELEMENTS
	#--------------------------------------------------------------------------------------------------

	# Soil Elements
	model basic -ndm 3 -ndf 4
	# up_elements 20_8_BrickUP
	element 20_8_BrickUP 1 1 2 3 4 5 6 7 8 9 10 11 12 13 14 15 16 17 18 19 20 11 2200000.0 1.0 1.0 1.0 1.0 0.0 0.0 -9.81
	element 20_8_BrickUP 2 21 22 23 24 1 2 3 4 25 26 27 28 9 10 11 12 29 30 31 32 71 2200000.0 1.0 1.0 1.0 1.0 0.0 0.0 -9.81
	element 20_8_BrickUP 3 33 34 35 36 21 22 23 24 37 38 39 40 25 26 27 28 41 42 43 44 70 2200000.0 1.0 1.0 1.0 1.0 0.0 0.0 -9.81
	element 20_8_BrickUP 4 45 46 47 48 33 34 35 36 49 50 51 52 37 38 39 40 53 54 55 56 70 2200000.0 1.0 1.0 1.0 1.0 0.0 0.0 -9.81
	element 20_8_BrickUP 5 57 58 59 60 45 46 47 48 61 62 63 64 49 50 51 52 65 66 67 68 70 2200000.0 1.0 1.0 1.0 1.0 0.0 0.0 -9.81
	element 20_8_BrickUP 6 69 70 71 72 57 58 59 60 73 74 75 76 61 62 63 64 77 78 79 80 70 2200000.0 1.0 1.0 1.0 1.0 0.0 0.0 -9.81
	element 20_8_BrickUP 7 81 82 83 84 69 70 71 72 85 86 87 88 73 74 75 76 89 90 91 92 70 2200000.0 1.0 1.0 1.0 1.0 0.0 0.0 -9.81
	element 20_8_BrickUP 8 93 94 95 96 81 82 83 84 97 98 99 100 85 86 87 88 101 102 103 104 70 2200000.0 1.0 1.0 1.0 1.0 0.0 0.0 -9.81
	element 20_8_BrickUP 9 105 106 107 108 93 94 95 96 109 110 111 112 97 98 99 100 113 114 115 116 70 2200000.0 1.0 1.0 1.0 1.0 0.0 0.0 -9.81
	element 20_8_BrickUP 10 117 118 119 120 105 106 107 108 121 122 123 124 109 110 111 112 125 126 127 128 70 2200000.0 1.0 1.0 1.0 1.0 0.0 0.0 -9.81
	element 20_8_BrickUP 11 129 130 131 132 117 118 119 120 133 134 135 136 121 122 123 124 137 138 139 140 70 2200000.0 1.0 1.0 1.0 1.0 0.0 0.0 -9.81
	element 20_8_BrickUP 12 141 142 143 144 129 130 131 132 145 146 147 148 133 134 135 136 149 150 151 152 70 2200000.0 1.0 1.0 1.0 1.0 0.0 0.0 -9.81
	element 20_8_BrickUP 13 153 154 155 156 141 142 143 144 157 158 159 160 145 146 147 148 161 162 163 164 70 2200000.0 1.0 1.0 1.0 1.0 0.0 0.0 -9.81
	element 20_8_BrickUP 14 165 166 167 168 153 154 155 156 169 170 171 172 157 158 159 160 173 174 175 176 70 2200000.0 1.0 1.0 1.0 1.0 0.0 0.0 -9.81
	element 20_8_BrickUP 15 177 178 179 180 165 166 167 168 181 182 183 184 169 170 171 172 185 186 187 188 70 2200000.0 1.0 1.0 1.0 1.0 0.0 0.0 -9.81
	element 20_8_BrickUP 16 189 190 191 192 177 178 179 180 193 194 195 196 181 182 183 184 197 198 199 200 70 2200000.0 1.0 1.0 1.0 1.0 0.0 0.0 -9.81
	element 20_8_BrickUP 17 201 202 203 204 189 190 191 192 205 206 207 208 193 194 195 196 209 210 211 212 70 2200000.0 1.0 1.0 1.0 1.0 0.0 0.0 -9.81
	element 20_8_BrickUP 18 213 214 215 216 201 202 203 204 217 218 219 220 205 206 207 208 221 222 223 224 20 2200000.0 1.0 1.0 1.0 1.0 0.0 0.0 -9.81
	element 20_8_BrickUP 19 225 226 227 228 213 214 215 216 229 230 231 232 217 218 219 220 233 234 235 236 90 2200000.0 1.0 1.0 1.0 1.0 0.0 0.0 -9.81
	element 20_8_BrickUP 20 237 238 239 240 225 226 227 228 241 242 243 244 229 230 231 232 245 246 247 248 90 2200000.0 1.0 1.0 1.0 1.0 0.0 0.0 -9.81

	puts "Finished creating all elements..."

	#--------------------------------------------------------------------------------------------------
	#          4 - LYSMER DASHPOT
	#--------------------------------------------------------------------------------------------------

	# Define dashpot nodes
	model basic -ndm 3 -ndf 3

	set dashF 249
	set dashX 250
	set dashZ 251

	node $dashF  0.0 0.0 0.0
	node $dashX  0.0 0.0 0.0
	node $dashZ  0.0 0.0 0.0

	# Define fixities for dashpot nodes
	fix $dashF  1 1 1
	fix $dashX  0 1 1
	fix $dashZ  1 1 0

	# Link dashpots with soil column
	equalDOF 238 $dashX 1
	equalDOF 238 $dashZ 3

	# Dashpot material
	set colArea 1.00
	set Vsrock 1900.00
	set Denrock 2.5
	set dashpotCoeff 4750.0000

	uniaxialMaterial Viscous 1000 4750 1

	# Dashpot elements
	element zeroLength 21 $dashF $dashX -mat 1000 -dir 1
	element zeroLength 22 $dashF $dashZ -mat 1000 -dir 3

	puts "Finished creating Lysmer dashpots..."

	#--------------------------------------------------------------------------------------------------
	#          5 -  BOUNDARY CONDITIONS
	#--------------------------------------------------------------------------------------------------

	# Soil BC
	model basic -ndm 3 -ndf 4
	# Constraints.sp fix
	fix 237 0 1 1 0
	fix 238 0 1 1 0
	fix 239 0 1 1 0
	fix 240 0 1 1 0
	fix 1 0 0 0 1
	fix 2 0 0 0 1
	fix 3 0 0 0 1
	fix 4 0 0 0 1
	fix 5 0 0 0 1
	fix 6 0 0 0 1
	fix 7 0 0 0 1
	fix 8 0 0 0 1
	fix 21 0 0 0 1
	fix 22 0 0 0 1
	fix 23 0 0 0 1
	fix 24 0 0 0 1
	fix 33 0 1 0 0
	fix 34 0 1 0 0
	fix 35 0 1 0 0
	fix 36 0 1 0 0
# ... 76 like lines cut
	model basic -ndm 3 -ndf 3
	# Constraints.sp fix
	fix 241 0 1 1
	fix 242 0 1 1
	fix 243 0 1 1
	fix 244 0 1 1
	fix 10 0 1 0
	fix 12 0 1 0
	fix 14 0 1 0
	fix 16 0 1 0
	fix 17 0 1 0
	fix 18 0 1 0
	fix 19 0 1 0
	fix 20 0 1 0
	fix 26 0 1 0
	fix 28 0 1 0
	fix 29 0 1 0
	fix 30 0 1 0
	fix 31 0 1 0
	fix 32 0 1 0
	fix 38 0 1 0
	fix 40 0 1 0
# ... 104 like lines cut
	# Constraints.mp EqualDOF
	model basic -ndm 3 -ndf 3
	# Base of the colum - x
	equalDOF 238 237 1
	equalDOF 238 239 1
	equalDOF 238 240 1
	equalDOF 238 241 1
	equalDOF 238 242 1
	equalDOF 238 243 1
	equalDOF 238 244 1

	# Soil Edge Periodic Boundaries
	equalDOF 1 4 1 2 3
	equalDOF 2 3 1 2 3
	equalDOF 5 8 1 2 3
	equalDOF 6 7 1 2 3
	equalDOF 9 11 1 2 3
	equalDOF 13 15 1 2 3
	equalDOF 17 20 1 2 3
	equalDOF 18 19 1 2 3
	equalDOF 21 24 1 2 3
	equalDOF 22 23 1 2 3
	equalDOF 25 27 1 2 3
	equalDOF 29 32 1 2 3
	equalDOF 30 31 1 2 3
	equalDOF 33 36 1 2 3
	equalDOF 34 35 1 2 3
	equalDOF 37 39 1 2 3
	equalDOF 41 44 1 2 3
	equalDOF 42 43 1 2 3
	equalDOF 45 48 1 2 3
	equalDOF 46 47 1 2 3
# ... 83 like lines cut

	puts "Finished creating all soil boundary conditions..."

	#--------------------------------------------------------------------------------------------------
	#          6 - UPDATE STAGE ELASTIC
	#--------------------------------------------------------------------------------------------------

	# soil material stage : elastic
	updateMaterialStage -material 11 -stage 0
	updateMaterialStage -material 20 -stage 0
	updateMaterialStage -material 70 -stage 0
	updateMaterialStage -material 71 -stage 0
	updateMaterialStage -material 90 -stage 0

	#--------------------------------------------------------------------------------------------------
	#          7 - RAYLEIGH DAMPING - SOIL
	#--------------------------------------------------------------------------------------------------

	# Misc_commands region

	# Soil Rayleigh Damping
	set pi 3.141592654
	set damp 0.03
	set omega1 [expr 2*$pi*3.960]
	set omega2 [expr 2*$pi*19.798]
	set a0 [expr 2*$damp*$omega1*$omega2/($omega1 + $omega2)]
	set a1 [expr 2*$damp/($omega1 + $omega2)]

	region 4 \
	-eleRange 1 20 \
	-rayleigh $a0 0.0 $a1 0.0

	puts "damping coefficients: a_0 = $a0;  a_1 = $a1"

	#--------------------------------------------------------------------------------------------------
	#          8 - STAGE 1 - GRAVITY ANALYSIS ELASTIC COMMANDS
	#--------------------------------------------------------------------------------------------------

	puts ""
	puts "BEGIN STAGE 1 - ELASTIC ANALYSIS WITH SOIL SELF WEIGHT"
	# analyses command
	constraints Penalty 1e+15 1e+15
	numberer RCM
	system Mumps -ICNTL14 200
	test NormDispIncr 0.001 100 1
	algorithm KrylovNewton -iterate current
	integrator Newmark 0.50 0.25
	analysis Transient
	analyze 10 500.0

	loadConst -time 0.0

	puts "DONE STAGE 1 - ELASTIC ANALYSIS WITH SOIL SELF WEIGHT"

	# Elapsed Time
	set endTime [clock clicks -milliseconds]
	set elapsedTimeMillis [expr {$endTime - $startTime}]
	set elapsedTimeSeconds [expr {int($elapsedTimeMillis / 1000.0)}]
	set elapsedTimeMinutes [expr {int($elapsedTimeMillis / (1000.0 * 60))}]
	
	if {$elapsedTimeSeconds < 60} {
	    puts "STAGE 1 END - Elapsed time: $elapsedTimeSeconds s"
	} elseif {$elapsedTimeMinutes < 60} {
	    puts "STAGE 1 END - Elapsed time: $elapsedTimeMinutes min"
	} else {
	    set elapsedTimeHours [expr {int($elapsedTimeMinutes / 60)}]
	    puts "STAGE 1 END - Elapsed time: $elapsedTimeHours hrs"
	}

	# issue a domain change so this will be the end of stage 1
	domainChange

	#--------------------------------------------------------------------------------------------------
	#          9 - UPDATE STAGE PLASTIC
	#--------------------------------------------------------------------------------------------------

	# soil material stage : elastic
	updateMaterialStage -material 11 -stage 1
	updateMaterialStage -material 20 -stage 1
	updateMaterialStage -material 70 -stage 1
	updateMaterialStage -material 71 -stage 1
	updateMaterialStage -material 90 -stage 1

	#--------------------------------------------------------------------------------------------------
	#          8 - STAGE 1 - GRAVITY ANALYSIS PLASTIC COMMANDS
	#--------------------------------------------------------------------------------------------------

	# analyses command
	constraints Penalty 1000000000000000.0 1000000000000000.0
	numberer RCM
	system Mumps -ICNTL14 200
	test NormDispIncr 0.0005 100 1
	algorithm KrylovNewton
	integrator Newmark 0.50 0.25
	analysis Transient
	analyze 0 0.0

	puts ""
	puts "BEGIN STAGE 2 - ELASTIC ANALYSIS WITH INCREMENTALLY APPLIED STRUCTURE LOAD"
	puts ""
	puts "Reducing the time step smoothly from 500.0s to 0.005s"

	set DTSum 0.0
	set offset 0

	set DT0 500.0
	set DT1 50.0
	set NSteps 10
	set LinspaceH [expr ($DT1-$DT0)/($NSteps-1)]
	set DTPrev $DT0
	for {set i 0} {$i < [expr $NSteps-1]} {incr i; incr offset} {
	    puts "($offset) ANALYZE WITH DT = $DTPrev"
	    analyze 1 $DTPrev
	    set DTSum [expr $DTSum + $DTPrev]
	    set DTPrev [expr $DTPrev + $LinspaceH]
	}
	# up to here SumDT = 2700, end of linear time series
	# from here on the time series is constant

	set DT0 50.0
	set DT1 0.5
	set NSteps 10
	set LinspaceH [expr ($DT1-$DT0)/($NSteps-1)]
	set DTPrev $DT0
	for {set i 0} {$i < [expr $NSteps-1]} {incr i; incr offset} {
	    puts "($offset) $DTPrev"
	    analyze 1 $DTPrev
	    set DTSum [expr $DTSum + $DTPrev]
	    set DTPrev [expr $DTPrev + $LinspaceH]
	}

	set DT0 0.5
	set DT1 0.005
	set NSteps 10
	set LinspaceH [expr ($DT1-$DT0)/($NSteps-1)]
	set DTPrev $DT0
	for {set i 0} {$i < $NSteps} {incr i; incr offset} {
	    puts "($offset) $DTPrev"
	    analyze 1 $DTPrev
	    set DTSum [expr $DTSum + $DTPrev]
	    set DTPrev [expr $DTPrev + $LinspaceH]
	    if {$i == $NSteps - 2} {
	        set DTPrev $DT1
	    }
	}
	puts "Sum: $DTSum"

	# message

	puts ""
	puts "DONE STAGE 2 - ELASTIC  ANALYSIS WITH INCREMENTALLY APPLIED STRUCTURE LOAD"

	# Elapsed Time
	set endTime [clock clicks -milliseconds]
	set elapsedTimeMillis [expr {$endTime - $startTime}]
	set elapsedTimeMinutes [expr {int($elapsedTimeMillis / (1000.0 * 60))}]
	
	if {$elapsedTimeMinutes < 60} {
	    puts "STAGE 2 END - Elapsed time: $elapsedTimeMinutes min"
	} else {
	    set elapsedTimeHours [expr {int($elapsedTimeMinutes / 60)}]
	    puts "STAGE 2 END - Elapsed time: $elapsedTimeHours hrs"
	}

	#issue a domain change
	domainChange

	loadConst -time 0.0

	#--------------------------------------------------------------------------------------------------
	#          11 - UPDATE ELEMENT PERMEABILITY VALUES FOR POST-GRAVITY ANALYSIS
	#--------------------------------------------------------------------------------------------------

	# Misc_commands parameter

	# updateParameter
	set matIDk1 3.0581e-08
	set matIDk2 1.0688e-05
	set matIDk3 1.213e-05
	set matIDk4 5.4027e-05

	# set parameter
	setParameter -value $matIDk1 -ele 18 hPerm
	setParameter -value $matIDk1 -ele 18 hPerm
	setParameter -value $matIDk1 -ele 18 vPerm
	# set parameter
	setParameter -value $matIDk2 -ele 19 hPerm
	setParameter -value $matIDk2 -ele 19 hPerm
	setParameter -value $matIDk2 -ele 19 vPerm
	setParameter -value $matIDk2 -ele 20 hPerm
	setParameter -value $matIDk2 -ele 20 hPerm
	setParameter -value $matIDk2 -ele 20 vPerm
	# set parameter
	setParameter -value $matIDk3 -ele 2 hPerm
	setParameter -value $matIDk3 -ele 2 hPerm
	setParameter -value $matIDk3 -ele 2 vPerm
	setParameter -value $matIDk3 -ele 3 hPerm
	setParameter -value $matIDk3 -ele 3 hPerm
	setParameter -value $matIDk3 -ele 3 vPerm
	setParameter -value $matIDk3 -ele 4 hPerm
	setParameter -value $matIDk3 -ele 4 hPerm
	setParameter -value $matIDk3 -ele 4 vPerm
	setParameter -value $matIDk3 -ele 5 hPerm
	setParameter -value $matIDk3 -ele 5 hPerm
	setParameter -value $matIDk3 -ele 5 vPerm
	setParameter -value $matIDk3 -ele 6 hPerm
	setParameter -value $matIDk3 -ele 6 hPerm
	setParameter -value $matIDk3 -ele 6 vPerm
	setParameter -value $matIDk3 -ele 7 hPerm
	setParameter -value $matIDk3 -ele 7 hPerm
	setParameter -value $matIDk3 -ele 7 vPerm
	setParameter -value $matIDk3 -ele 8 hPerm
	setParameter -value $matIDk3 -ele 8 hPerm
	setParameter -value $matIDk3 -ele 8 vPerm
	setParameter -value $matIDk3 -ele 9 hPerm
	setParameter -value $matIDk3 -ele 9 hPerm
	setParameter -value $matIDk3 -ele 9 vPerm
	setParameter -value $matIDk3 -ele 10 hPerm
	setParameter -value $matIDk3 -ele 10 hPerm
	setParameter -value $matIDk3 -ele 10 vPerm
	setParameter -value $matIDk3 -ele 11 hPerm
	setParameter -value $matIDk3 -ele 11 hPerm
	setParameter -value $matIDk3 -ele 11 vPerm
	setParameter -value $matIDk3 -ele 12 hPerm
	setParameter -value $matIDk3 -ele 12 hPerm
	setParameter -value $matIDk3 -ele 12 vPerm
	setParameter -value $matIDk3 -ele 13 hPerm
	setParameter -value $matIDk3 -ele 13 hPerm
	setParameter -value $matIDk3 -ele 13 vPerm
	setParameter -value $matIDk3 -ele 14 hPerm
	setParameter -value $matIDk3 -ele 14 hPerm
	setParameter -value $matIDk3 -ele 14 vPerm
	setParameter -value $matIDk3 -ele 15 hPerm
	setParameter -value $matIDk3 -ele 15 hPerm
	setParameter -value $matIDk3 -ele 15 vPerm
	setParameter -value $matIDk3 -ele 16 hPerm
	setParameter -value $matIDk3 -ele 16 hPerm
	setParameter -value $matIDk3 -ele 16 vPerm
	setParameter -value $matIDk3 -ele 17 hPerm
	setParameter -value $matIDk3 -ele 17 hPerm
	setParameter -value $matIDk3 -ele 17 vPerm
	# set parameter
	setParameter -value $matIDk4 -ele 1 hPerm
	setParameter -value $matIDk4 -ele 1 hPerm
	setParameter -value $matIDk4 -ele 1 vPerm

	puts "Finished updating permeabilities for dynamic analysis..."

	#--------------------------------------------------------------------------------------------------
	#          12 - GROUND MOTION
	#--------------------------------------------------------------------------------------------------

	# define velocity time history file
	set dataDirORM OutcropMotions
	set velocityFile [concat "$fileORID.out"]

	# timeseries object for force history
	set mSeries "Path -dt [lindex $matGMDT $idgmi-1] -filePath $dataDirORM/$velocityFile -factor $dashpotCoeff"

	# loading object
	pattern Plain 10 $mSeries {
	    load 238 1.0 0.0 0.0 0.0
	}
	puts "Dynamic loading created..."

	#--------------------------------------------------------------------------------------------------
	#          13 - CREATE POST-GRAVITY RECORDERS 
	#--------------------------------------------------------------------------------------------------

	puts "Create post-gravity recorders"

	set dataDirWM WithinMotions
	eval "recorder Node -file $dataDirWM/$fileWMID.out -time -dT [lindex $matGMDT $idgmi-1] -node 239 -dof 1 accel"

	set dataDirSSC ResultsSSC
	file mkdir $dataDirSSC

	set SSCEPInodes {	3 	7 	23 	35 	47 	59 	71 	83 	95 	107 	119 	131 	143 	155 	167 	179 	191 	203 	215 	227 	239	}
	eval "recorder Node -file $dataDirSSC/SSCEPI_pwp_idCf48_GM[lindex $matGMid $idgmi-1].out -time -dT 0.005 -node $SSCEPInodes -dof 4 vel"

	eval "recorder Node -file $dataDirSSC/SSC_acc_idCf48_GM[lindex $matGMid $idgmi-1].out -time -dT 0.005 -node $SSCEPInodes -dof 1 accel"

	#--------------------------------------------------------------------------------------------------
	#          14 - STAGE 3 - DYNAMIC ANALYSIS
	#--------------------------------------------------------------------------------------------------

	# analyses command
	constraints Penalty 1000000000000000.0 1000000000000000.0
	numberer RCM
	system Mumps -ICNTL14 200
	test NormDispIncr 1.0e-3 50 0
	algorithm KrylovNewton -iterate current
	integrator Newmark 0.50 0.25
	analysis Transient

	# RUN Non-linear Analysis with timestep reduction loop
	set nSteps [expr int([lindex $matGMdur $idgmi-1]/[lindex $matGMDT $idgmi-1])]
	set ok [analyze $nSteps [lindex $matGMDT $idgmi-1]]

	set dT [lindex $matGMDT $idgmi-1]

	# if analysis fails, reduce timestep and continue with analysis
	if {$ok != 0} {
		puts "did not converge, reducing time step"
		set curTime  [getTime]
		set mTime $curTime
		puts "curTime: $curTime"
		set curStep  [expr $curTime/$dT]
		puts "curStep: $curStep"
		set rStep  [expr ($nSteps-$curStep)*2.0]
		set remStep  [expr int(($nSteps-$curStep)*2.0)]
		puts "remStep: $remStep"
		set dT       [expr $dT/2.0]
		puts "dT: $dT"
		set ok [analyze  $remStep  $dT]
		# if analysis fails again, reduce timestep and continue with analysis
		if {$ok != 0} {
			puts "did not converge, reducing time step"
			set curTime  [getTime]
			puts "curTime: $curTime"
			set curStep  [expr ($curTime-$mTime)/$dT]
			puts "curStep: $curStep"
			set remStep  [expr int(($rStep-$curStep)*2.0)]
			puts "remStep: $remStep"
			set dT       [expr $dT/2.0]
			puts "dT: $dT"
			analyze  $remStep  $dT
		}
	}

	# Reset time and analysis
	loadConst 0.0
	setTime 0.0
	wipeAnalysis
	remove recorders

	wipe
	# --------------------------------------------------------------------------------------------------
}
