###################################################################################################
# JP3 Parametric Study - S3D Models - April 2024
# 
# AnalysisID: "ModelConfig_id48_NM"
# 
# Model Config. ID: 48 (slp=0)
# Struct. ID: RC1
#
# copyright: Caroline Bessette, University of Colorado Boulder, 04/27/2024 21:09
###################################################################################################

#--------------------------------------------------------------------------------------------------
#          00 - Set Up & Source Definition
#--------------------------------------------------------------------------------------------------

wipe
set process_id [getPID]
# Ground motion information
set matGMid {225 0}
set matGMDT {0.004 0}
set matGMdur {185 0}
set matGMdur1 {85.328 0}
set matGMdur2 {99.672 0}

for {set index 1} {$index < [llength $matGMid]} {incr index} {

set idgmi $index
set idgmout [lindex $matGMid $index-1]
set fileWMID [concat "acc_idgm[lindex $matGMid $idgmi-1]"]
if {$process_id == 0} {
puts "idgmi: $idgmi"
puts "idgm: [lindex $matGMid $index-1]"
puts "motionDT: [lindex $matGMDT $index-1]"
puts "gmdur1: [lindex $matGMdur1 $index-1]"
puts "gmdur2: [lindex $matGMdur2 $index-1]"
puts "fileWMID: $fileWMID"
}
set startT  [clock seconds]

#--------------------------------------------------------------------------------------------------
#          1 - DEFINE NODES
#--------------------------------------------------------------------------------------------------

# Soil Nodes
if {$process_id == 0} {
model basic -ndm 3 -ndf 4
# tag x y z
   node 3 -29.94 0 16.5
   node 4 -29.94 0.7004 16.5
   node 7 -29.94 0 17.5
   node 8 -29.94 0.7004 17.5
   node 23 -29.94 0 15.5
   node 24 -29.94 0.7004 15.5
   node 35 -29.94 0 15
   node 36 -29.94 0.7004 15
   node 47 -29.94 0 14.5
   node 48 -29.94 0.7004 14.5
   node 59 -29.94 0 13.5
   node 60 -29.94 0.7004 13.5
   node 71 -29.94 0 12.5
   node 72 -29.94 0.7004 12.5
   node 83 -29.94 0 11.5
   node 84 -29.94 0.7004 11.5
   node 95 -29.94 0 10.5
   node 96 -29.94 0.7004 10.5
   node 107 -29.94 0 9.5
   node 108 -29.94 0.7004 9.5
# ... 1090 like lines cut

model basic -ndm 3 -ndf 3
# tag x y z
   node 11 -29.94 0.3502 16.5
   node 15 -29.94 0.3502 17.5
   node 19 -29.94 0 17
   node 20 -29.94 0.7004 17
   node 27 -29.94 0.3502 15.5
   node 31 -29.94 0 16
   node 32 -29.94 0.7004 16
   node 39 -29.94 0.3502 15
   node 43 -29.94 0 15.25
   node 44 -29.94 0.7004 15.25
   node 51 -29.94 0.3502 14.5
   node 55 -29.94 0 14.75
   node 56 -29.94 0.7004 14.75
   node 63 -29.94 0.3502 13.5
   node 67 -29.94 0 14
   node 68 -29.94 0.7004 14
   node 75 -29.94 0.3502 12.5
   node 79 -29.94 0 13
   node 80 -29.94 0.7004 13
   node 87 -29.94 0.3502 11.5
# ... 2772 like lines cut

# Foundation Nodes
model basic -ndm 3 -ndf 4
# tag x y z
   node 100001 -3.5 0.7004 16.5
   node 100002 -3.5 0 16.5
   node 100003 -2.5 0 16.5
   node 100004 -2.5 0.7004 16.5
   node 100005 -3.5 0.7004 17.5
   node 100006 -3.5 0 17.5
   node 100007 -2.5 0 17.5
   node 100008 -2.5 0.7004 17.5
   node 100021 -3.5 0.7004 15.5
   node 100022 -3.5 0 15.5
   node 100023 -2.5 0 15.5
   node 100024 -2.5 0.7004 15.5
   node 100033 -3.5 0.7004 15
   node 100034 -3.5 0 15
   node 100035 -2.5 0 15
   node 100036 -2.5 0.7004 15
   node 100045 -3.5 1.401 16.5
   node 100046 -2.5 1.401 16.5
   node 100047 -3.5 1.401 17.5
   node 100048 -2.5 1.401 17.5
# ... 88 like lines cut

model basic -ndm 3 -ndf 3
# tag x y z
   node 100009 -3.5 0.3502 16.5
   node 100010 -3 0 16.5
   node 100011 -2.5 0.3502 16.5
   node 100012 -3 0.7004 16.5
   node 100013 -3.5 0.3502 17.5
   node 100014 -3 0 17.5
   node 100015 -2.5 0.3502 17.5
   node 100016 -3 0.7004 17.5
   node 100017 -3.5 0.7004 17
   node 100018 -3.5 0 17
   node 100019 -2.5 0 17
   node 100020 -2.5 0.7004 17
   node 100025 -3.5 0.3502 15.5
   node 100026 -3 0 15.5
   node 100027 -2.5 0.3502 15.5
   node 100028 -3 0.7004 15.5
   node 100029 -3.5 0.7004 16
   node 100030 -3.5 0 16
   node 100031 -2.5 0 16
   node 100032 -2.5 0.7004 16
# ... 229 like lines cut

puts "Finished creating all Foundation nodes..."

# Structure Nodes
model basic -ndm 3 -ndf 6
# tag x y z
   node 3000001 -2.5 0.7004 17.5
   node 3000002 2.5 0.7004 17.5
   node 3000003 -2.5 0.7004 21.5
   node 3000004 -2.5 0.7004 21.5
   node 3000005 2.5 0.7004 21.5
   node 3000006 2.5 0.7004 21.5
   node 3000007 -2.5 0.7004 18.5
   node 3000008 2.5 0.7004 18.5
   node 3000009 -2.5 0.7004 19.5
   node 3000010 2.5 0.7004 19.5
   node 3000011 -2.5 0.7004 20.5
   node 3000012 2.5 0.7004 20.5
   node 3000013 -1.5 0.7004 21.5
   node 3000014 -0.5 0.7004 21.5
   node 3000015 0.5 0.7004 21.5
   node 3000016 1.5 0.7004 21.5

# Structure Base Foundation Connection Nodes
model basic -ndm 3 -ndf 6
# tag x y z
   node 5000001 -2.5 0.7004 17.5
   node 5000002 2.5 0.7004 17.5

puts "Finished creating all structure nodes..."

} elseif {$process_id == 1} {
model basic -ndm 3 -ndf 4
# tag x y z
   node 1 -31.81 0.7004 16.5
   node 2 -31.81 0 16.5
   node 3 -29.94 0 16.5
   node 4 -29.94 0.7004 16.5
   node 5 -31.81 0.7004 17.5
   node 6 -31.81 0 17.5
   node 7 -29.94 0 17.5
   node 8 -29.94 0.7004 17.5
   node 21 -31.81 0.7004 15.5
   node 22 -31.81 0 15.5
   node 23 -29.94 0 15.5
   node 24 -29.94 0.7004 15.5
   node 33 -31.81 0.7004 15
   node 34 -31.81 0 15
   node 35 -29.94 0 15
   node 36 -29.94 0.7004 15
   node 45 -31.81 0.7004 14.5
   node 46 -31.81 0 14.5
   node 47 -29.94 0 14.5
   node 48 -29.94 0.7004 14.5
# ... 1510 like lines cut

model basic -ndm 3 -ndf 3
# tag x y z
   node 9 -31.81 0.3502 16.5
   node 10 -30.87 0 16.5
   node 11 -29.94 0.3502 16.5
   node 12 -30.87 0.7004 16.5
   node 13 -31.81 0.3502 17.5
   node 14 -30.87 0 17.5
   node 15 -29.94 0.3502 17.5
   node 16 -30.87 0.7004 17.5
   node 17 -31.81 0.7004 17
   node 18 -31.81 0 17
   node 19 -29.94 0 17
   node 20 -29.94 0.7004 17
   node 25 -31.81 0.3502 15.5
   node 26 -30.87 0 15.5
   node 27 -29.94 0.3502 15.5
   node 28 -30.87 0.7004 15.5
   node 29 -31.81 0.7004 16
   node 30 -31.81 0 16
   node 31 -29.94 0 16
   node 32 -29.94 0.7004 16
# ... 3781 like lines cut

} elseif {$process_id == 2} {
model basic -ndm 3 -ndf 4
# tag x y z
   node 8134 10.31 0 16.5
   node 8135 10.31 0.7004 16.5
   node 8136 10.31 0 17.5
   node 8137 10.31 0.7004 17.5
   node 8146 10.31 0 15.5
   node 8147 10.31 0.7004 15.5
   node 8153 10.31 0 15
   node 8154 10.31 0.7004 15
   node 8160 10.31 0 14.5
   node 8161 10.31 0.7004 14.5
   node 8167 10.31 0 13.5
   node 8168 10.31 0.7004 13.5
   node 8174 10.31 0 12.5
   node 8175 10.31 0.7004 12.5
   node 8181 10.31 0 11.5
   node 8182 10.31 0.7004 11.5
   node 8188 10.31 0 10.5
   node 8189 10.31 0.7004 10.5
   node 8195 10.31 0 9.5
   node 8196 10.31 0.7004 9.5
# ... 925 like lines cut

model basic -ndm 3 -ndf 3
# tag x y z
   node 8139 10.31 0.3502 16.5
   node 8142 10.31 0.3502 17.5
   node 8144 10.31 0 17
   node 8145 10.31 0.7004 17
   node 8149 10.31 0.3502 15.5
   node 8151 10.31 0 16
   node 8152 10.31 0.7004 16
   node 8156 10.31 0.3502 15
   node 8158 10.31 0 15.25
   node 8159 10.31 0.7004 15.25
   node 8163 10.31 0.3502 14.5
   node 8165 10.31 0 14.75
   node 8166 10.31 0.7004 14.75
   node 8170 10.31 0.3502 13.5
   node 8172 10.31 0 14
   node 8173 10.31 0.7004 14
   node 8177 10.31 0.3502 12.5
   node 8179 10.31 0 13
   node 8180 10.31 0.7004 13
   node 8184 10.31 0.3502 11.5
# ... 2392 like lines cut

}
puts "Finished creating all model nodes..."

#--------------------------------------------------------------------------------------------------
#          2 - MATERIALS
#--------------------------------------------------------------------------------------------------

# Ottawa Sand Material - Saturated
nDMaterial PressureDependMultiYield02 30 3 1.92 78000.0 203410.0 30.0 0.1 101.0 0.5 26.0 0.75 1.61 0.01 0.21 20 2.4 3.0 1.0 0.0 0.733 0.9 0.02 0.7 101.0 0.1 0.0 1.0
nDMaterial PressureDependMultiYield02 40 3 1.94 82000.0 213843.0 31.0 0.1 101.0 0.5 26.8 0.61 2.24 0.097 0.27 20 3.8 3.0 1.0 0.0 0.675 0.9 0.02 0.7 101.0 0.1 0.0 1.0
nDMaterial PressureDependMultiYield02 50 3 1.96 85500.0 222970.0 32.0 0.1 101.0 0.5 29.5 0.48 2.87 0.89 0.33 20 3.8 3.0 1.0 0.0 0.675 0.9 0.02 0.7 101.0 0.1 0.0 1.0
nDMaterial PressureDependMultiYield02 60 3 1.98 90000.0 234702.0 33.6 0.1 101.0 0.5 31.0 0.34 3.5 1.69 0.39 20 4.5 3.0 1.0 0.0 0.646 0.9 0.02 0.7 101.0 0.1 0.0 1.0
nDMaterial PressureDependMultiYield02 70 3 1.99 94000.0 1.8727e+05 36.25 0.1 101.0 0.5 33.7 0.21 4.14 2.48 0.45 20 5.2 3.0 1.0 0.0 0.617 0.9 0.02 0.7 101.0 0.1 0.0 1.0
nDMaterial PressureDependMultiYield02 80 3 2.01 99500.0 1.9823e+05 37.325 0.1 101.0 0.5 33.85 0.145 2.77 1.8 0.75 20 3.18 3.0 1.0 0.0 0.588 0.9 0.02 0.7 101.0 0.1 0.0 1.0
nDMaterial PressureDependMultiYield02 90 3 2.03 105000.0 209186.0 38.5 0.1 101.0 0.5 34.0 0.076 1.36 1.12 1.05 20 1.25 3.0 1.0 0.0 0.55 0.9 0.02 0.7 101.0 0.1 0.0 1.0

# Ottawa Sand Material - Dry (see excel spreadsheet calcs, set c = 2 kPa)
nDMaterial PressureDependMultiYield02 31 3 1.53 78000.0 203410.0 30.0 0.1 101.0 0.5 26.0 0.75 1.61 0.01 0.21 20 2.4 3.0 1.0 0.0 0.733 0.9 0.02 0.7 101.0 2.0 0.0 1.0
nDMaterial PressureDependMultiYield02 41 3 1.56 82000.0 213843.0 31.0 0.1 101.0 0.5 26.8 0.61 2.24 0.097 0.27 20 3.8 3.0 1.0 0.0 0.675 0.9 0.02 0.7 101.0 2.0 0.0 1.0
nDMaterial PressureDependMultiYield02 51 3 1.58 85500.0 222970.0 32.0 0.1 101.0 0.5 29.5 0.48 2.87 0.89 0.33 20 3.8 3.0 1.0 0.0 0.675 0.9 0.02 0.7 101.0 2.0 0.0 1.0
nDMaterial PressureDependMultiYield02 61 3 1.60 90000.0 234702.0 33.6 0.1 101.0 0.5 31.0 0.34 3.5 1.69 0.39 20 4.5 3.0 1.0 0.0 0.646 0.9 0.02 0.7 101.0 2.0 0.0 1.0
nDMaterial PressureDependMultiYield02 71 3 1.64 94000.0 1.8727e+05 36.25 0.1 101.0 0.5 33.7 0.21 4.14 2.48 0.45 20 5.2 3.0 1.0 0.0 0.617 0.9 0.02 0.7 101.0 2.0 0.0 1.0
nDMaterial PressureDependMultiYield02 81 3 1.67 99500.0 1.9823e+05 37.325 0.1 101.0 0.5 33.85 0.145 2.77 1.8 0.75 20 3.18 3.0 1.0 0.0 0.588 0.9 0.02 0.7 101.0 2.0 0.0 1.0
nDMaterial PressureDependMultiYield02 91 3 1.70 105000.0 209186.0 38.5 0.1 101.0 0.5 34.0 0.076 1.36 1.12 1.05 20 1.25 3.0 1.0 0.0 0.55 0.9 0.02 0.7 101.0 2.0 0.0 1.0

# Monterey Sand Material - Sat/Dry
nDMaterial PressureDependMultiYield02 10 3 2.02 133000.0 260000.0 42.0 0.1 101.0 0.5 32.0 0.014 0.15 0.36 0.005 20 2.0 3.0 1.0 0.0 0.56 0.9 0.02 0.7 101.0 0.1 0.0 1.0
nDMaterial PressureDependMultiYield02 11 3 1.68 133000.0 260000.0 42.0 0.1 101.0 0.5 32.0 0.014 0.15 0.36 0.005 20 2.0 3.0 1.0 0.0 0.56 0.9 0.02 0.7 101.0 2.0 0.0 1.0

# Silica silt Material - Sat/Dry
nDMaterial PressureDependMultiYield02 20 3 2.03 87600.0 233800.0 41.0 0.1 101.0 0.5 36.0 0.3 0.15 0.02 0.0 20 5.0 3.0 1.0 0.0 0.88 0.9 0.02 0.7 101.0 0.1 0.0 1.0
nDMaterial PressureDependMultiYield02 21 3 1.41 87600.0 233800.0 41.0 0.1 101.0 0.5 36.0 0.3 0.15 0.02 0.0 20 5.0 3.0 1.0 0.0 0.88 0.9 0.02 0.7 101.0 2.0 0.0 1.0

# Dense Granular Columns Material -Sat/Dry
nDMaterial PressureDependMultiYield02 100 3 1.97 752000.0 201500.0 43.3 0.1 101.0 0.5 36.5 0.005 0.0 0.4 0.0 20 0.5 3.0 1.0 0.0 0.68 0.9 0.02 0.7 101.0 0.1 0.0 1.0
nDMaterial PressureDependMultiYield02 101 3 1.59 752000.0 201500.0 43.3 0.1 101.0 0.5 36.5 0.005 0.0 0.4 0.0 20 0.5 3.0 1.0 0.0 0.68 0.9 0.02 0.7 101.0 2.0 0.0 1.0

# Stiff clay - Sat/Dry
nDMaterial PressureIndependMultiYield 104 3 1.80 150000 750000 75 0.1 0 80 0 20

# Medium clay - Sat/Dry
nDMaterial PressureIndependMultiYield 105 3 1.5 60000 300000 37 0.1 0 80 0 20

# Foundation Material
nDMaterial ElasticIsotropic 200 69000000.0 0.25 2.9800

# Structure Material
# Beam Column Elements
uniaxialMaterial Elastic 6 1000000000.0

# Spring Elements
# INPUT Properties
set Ke 6526.99;
set as_P 0.0279347;
set as_N 0.0279347;
set My_P 27.1256;
set My_N 27.1256;
set L_S 282.618;
set L_K 79926.5;
set L_A 9941.97;
set L_C 785.198;
set c_S 1;
set c_K 60186;
set c_A 0.192156;
set c_C 91.42;
set th_pP 0.0625298;
set th_pN 0.0625298;
set th_pcP 0.153246;
set th_pcN 0.153246;
set ResP 0.5;
set ResN 0.5;
set th_uP 0.242617;
set th_uN 0.242617;
set D_pos 0.292898;
set D_neg 0.292898;
set c_S     1.00;
set c_C     1.00;
set c_K     1.00;
set c_A     1.00;
set FmaxFyP 1.41539;
set FmaxFyN 1.41539;

uniaxialMaterial IMKPeakOriented 501 $Ke $th_pP $th_pcP $th_uP $My_P $FmaxFyP $ResP $th_pN $th_pcN $th_uN $My_N $FmaxFyN $ResN $L_S $L_C $L_A $L_K $c_S $c_C $c_A $c_K $D_pos $D_neg;


puts "Finished creating all materials..."

#--------------------------------------------------------------------------------------------------
#          3 - ELEMENTS
#--------------------------------------------------------------------------------------------------

# Soil Elements
if {$process_id == 0} {
model basic -ndm 3 -ndf 4
# up_elements 20_8_BrickUP
element 20_8_BrickUP 41 4 3 394 395 8 7 396 397 11 398 399 400 15 401 402 403 20 19 404 405 11 2200000 1.0 1.0 1.0 1.0 0.0 0.0 -9.81
element 20_8_BrickUP 42 24 23 406 407 4 3 394 395 27 408 409 410 11 398 399 400 32 31 411 412 71 2200000 1.0 1.0 1.0 1.0 0.0 0.0 -9.81
element 20_8_BrickUP 43 36 35 413 414 24 23 406 407 39 415 416 417 27 408 409 410 44 43 418 419 70 2200000 1.0 1.0 1.0 1.0 0.0 0.0 -9.81
element 20_8_BrickUP 44 48 47 420 421 36 35 413 414 51 422 423 424 39 415 416 417 56 55 425 426 70 2200000 1.0 1.0 1.0 1.0 0.0 0.0 -9.81
element 20_8_BrickUP 45 60 59 427 428 48 47 420 421 63 429 430 431 51 422 423 424 68 67 432 433 70 2200000 1.0 1.0 1.0 1.0 0.0 0.0 -9.81
element 20_8_BrickUP 46 72 71 434 435 60 59 427 428 75 436 437 438 63 429 430 431 80 79 439 440 70 2200000 1.0 1.0 1.0 1.0 0.0 0.0 -9.81
element 20_8_BrickUP 47 84 83 441 442 72 71 434 435 87 443 444 445 75 436 437 438 92 91 446 447 70 2200000 1.0 1.0 1.0 1.0 0.0 0.0 -9.81
element 20_8_BrickUP 48 96 95 448 449 84 83 441 442 99 450 451 452 87 443 444 445 104 103 453 454 70 2200000 1.0 1.0 1.0 1.0 0.0 0.0 -9.81
element 20_8_BrickUP 49 108 107 455 456 96 95 448 449 111 457 458 459 99 450 451 452 116 115 460 461 70 2200000 1.0 1.0 1.0 1.0 0.0 0.0 -9.81
element 20_8_BrickUP 50 120 119 462 463 108 107 455 456 123 464 465 466 111 457 458 459 128 127 467 468 70 2200000 1.0 1.0 1.0 1.0 0.0 0.0 -9.81
element 20_8_BrickUP 51 132 131 469 470 120 119 462 463 135 471 472 473 123 464 465 466 140 139 474 475 70 2200000 1.0 1.0 1.0 1.0 0.0 0.0 -9.81
element 20_8_BrickUP 52 144 143 476 477 132 131 469 470 147 478 479 480 135 471 472 473 152 151 481 482 70 2200000 1.0 1.0 1.0 1.0 0.0 0.0 -9.81
element 20_8_BrickUP 53 156 155 483 484 144 143 476 477 159 485 486 487 147 478 479 480 164 163 488 489 70 2200000 1.0 1.0 1.0 1.0 0.0 0.0 -9.81
element 20_8_BrickUP 54 168 167 490 491 156 155 483 484 171 492 493 494 159 485 486 487 176 175 495 496 70 2200000 1.0 1.0 1.0 1.0 0.0 0.0 -9.81
element 20_8_BrickUP 55 180 179 497 498 168 167 490 491 183 499 500 501 171 492 493 494 188 187 502 503 70 2200000 1.0 1.0 1.0 1.0 0.0 0.0 -9.81
element 20_8_BrickUP 56 192 191 504 505 180 179 497 498 195 506 507 508 183 499 500 501 200 199 509 510 70 2200000 1.0 1.0 1.0 1.0 0.0 0.0 -9.81
element 20_8_BrickUP 57 204 203 511 512 192 191 504 505 207 513 514 515 195 506 507 508 212 211 516 517 70 2200000 1.0 1.0 1.0 1.0 0.0 0.0 -9.81
element 20_8_BrickUP 58 216 215 518 519 204 203 511 512 219 520 521 522 207 513 514 515 224 223 523 524 20 2200000 1.0 1.0 1.0 1.0 0.0 0.0 -9.81
element 20_8_BrickUP 59 228 227 525 526 216 215 518 519 231 527 528 529 219 520 521 522 236 235 530 531 90 2200000 1.0 1.0 1.0 1.0 0.0 0.0 -9.81
element 20_8_BrickUP 60 240 239 532 533 228 227 525 526 243 534 535 536 231 527 528 529 248 247 537 538 90 2200000 1.0 1.0 1.0 1.0 0.0 0.0 -9.81
# ... 612 like lines cut

puts "Finished creating all soil elements..."

# Foundation Elements
model basic -ndm 3 -ndf 4
# up_elements 20_8_BrickUP
element 20_8_BrickUP 10001 100001 100002 100003 100004 100005 100006 100007 100008 100009 100010 100011 100012 100013 100014 100015 100016 100017 100018 100019 100020 200 2200000 0.0 1.0 1.0 1.0 0.0 0.0 -9.81
element 20_8_BrickUP 10002 100021 100022 100023 100024 100001 100002 100003 100004 100025 100026 100027 100028 100009 100010 100011 100012 100029 100030 100031 100032 200 2200000 0.0 1.0 1.0 1.0 0.0 0.0 -9.81
element 20_8_BrickUP 10003 100033 100034 100035 100036 100021 100022 100023 100024 100037 100038 100039 100040 100025 100026 100027 100028 100041 100042 100043 100044 200 2200000 0.0 1.0 1.0 1.0 0.0 0.0 -9.81
element 20_8_BrickUP 10004 100045 100001 100004 100046 100047 100005 100008 100048 100049 100012 100050 100051 100052 100016 100053 100054 100055 100017 100020 100056 200 2200000 0.0 1.0 1.0 1.0 0.0 0.0 -9.81
element 20_8_BrickUP 10005 100057 100021 100024 100058 100045 100001 100004 100046 100059 100028 100060 100061 100049 100012 100050 100051 100062 100029 100032 100063 200 2200000 0.0 1.0 1.0 1.0 0.0 0.0 -9.81
element 20_8_BrickUP 10006 100064 100033 100036 100065 100057 100021 100024 100058 100066 100040 100067 100068 100059 100028 100060 100061 100069 100041 100044 100070 200 2200000 0.0 1.0 1.0 1.0 0.0 0.0 -9.81
element 20_8_BrickUP 10007 100004 100003 100071 100072 100008 100007 100073 100074 100011 100075 100076 100077 100015 100078 100079 100080 100020 100019 100081 100082 200 2200000 0.0 1.0 1.0 1.0 0.0 0.0 -9.81
element 20_8_BrickUP 10008 100024 100023 100083 100084 100004 100003 100071 100072 100027 100085 100086 100087 100011 100075 100076 100077 100032 100031 100088 100089 200 2200000 0.0 1.0 1.0 1.0 0.0 0.0 -9.81
element 20_8_BrickUP 10009 100036 100035 100090 100091 100024 100023 100083 100084 100039 100092 100093 100094 100027 100085 100086 100087 100044 100043 100095 100096 200 2200000 0.0 1.0 1.0 1.0 0.0 0.0 -9.81
element 20_8_BrickUP 10010 100046 100004 100072 100097 100048 100008 100074 100098 100050 100077 100099 100100 100053 100080 100101 100102 100056 100020 100082 100103 200 2200000 0.0 1.0 1.0 1.0 0.0 0.0 -9.81
element 20_8_BrickUP 10011 100058 100024 100084 100104 100046 100004 100072 100097 100060 100087 100105 100106 100050 100077 100099 100100 100063 100032 100089 100107 200 2200000 0.0 1.0 1.0 1.0 0.0 0.0 -9.81
element 20_8_BrickUP 10012 100065 100036 100091 100108 100058 100024 100084 100104 100067 100094 100109 100110 100060 100087 100105 100106 100070 100044 100096 100111 200 2200000 0.0 1.0 1.0 1.0 0.0 0.0 -9.81
element 20_8_BrickUP 10013 100072 100071 100112 100113 100074 100073 100114 100115 100076 100116 100117 100118 100079 100119 100120 100121 100082 100081 100122 100123 200 2200000 0.0 1.0 1.0 1.0 0.0 0.0 -9.81
element 20_8_BrickUP 10014 100084 100083 100124 100125 100072 100071 100112 100113 100086 100126 100127 100128 100076 100116 100117 100118 100089 100088 100129 100130 200 2200000 0.0 1.0 1.0 1.0 0.0 0.0 -9.81
element 20_8_BrickUP 10015 100091 100090 100131 100132 100084 100083 100124 100125 100093 100133 100134 100135 100086 100126 100127 100128 100096 100095 100136 100137 200 2200000 0.0 1.0 1.0 1.0 0.0 0.0 -9.81
element 20_8_BrickUP 10016 100097 100072 100113 100138 100098 100074 100115 100139 100099 100118 100140 100141 100101 100121 100142 100143 100103 100082 100123 100144 200 2200000 0.0 1.0 1.0 1.0 0.0 0.0 -9.81
element 20_8_BrickUP 10017 100104 100084 100125 100145 100097 100072 100113 100138 100105 100128 100146 100147 100099 100118 100140 100141 100107 100089 100130 100148 200 2200000 0.0 1.0 1.0 1.0 0.0 0.0 -9.81
element 20_8_BrickUP 10018 100108 100091 100132 100149 100104 100084 100125 100145 100109 100135 100150 100151 100105 100128 100146 100147 100111 100096 100137 100152 200 2200000 0.0 1.0 1.0 1.0 0.0 0.0 -9.81
element 20_8_BrickUP 10019 100113 100112 100153 100154 100115 100114 100155 100156 100117 100157 100158 100159 100120 100160 100161 100162 100123 100122 100163 100164 200 2200000 0.0 1.0 1.0 1.0 0.0 0.0 -9.81
element 20_8_BrickUP 10020 100125 100124 100165 100166 100113 100112 100153 100154 100127 100167 100168 100169 100117 100157 100158 100159 100130 100129 100170 100171 200 2200000 0.0 1.0 1.0 1.0 0.0 0.0 -9.81
# ... 28 like lines cut

puts "Finished creating all foundation elements..."

# Structure Elements
# beam_column_elements elasticBeamColumn
model basic -ndm 3 -ndf 6

# Geometric transformation command
# vertical beam column elements
geomTransf PDelta 4000001 1.0 0.0 -0.0
element elasticBeamColumn 4000001 3000001 3000007 0.64 2900000000.00 966666666.67 0.068266700000000000 0.034133299999999998 0.034133299999999998 4000001
geomTransf PDelta 4000002 1.0 0.0 -0.0
element elasticBeamColumn 4000002 3000007 3000009 0.64 2900000000.00 966666666.67 0.068266700000000000 0.034133299999999998 0.034133299999999998 4000002
geomTransf PDelta 4000003 1.0 0.0 -0.0
element elasticBeamColumn 4000003 3000009 3000011 0.64 2900000000.00 966666666.67 0.068266700000000000 0.034133299999999998 0.034133299999999998 4000003
geomTransf PDelta 4000004 1.0 0.0 -0.0
element elasticBeamColumn 4000004 3000011 3000003 0.64 2900000000.00 966666666.67 0.068266700000000000 0.034133299999999998 0.034133299999999998 4000004
geomTransf PDelta 4000005 1.0 0.0 -0.0
element elasticBeamColumn 4000005 3000002 3000008 0.64 2900000000.00 966666666.67 0.068266700000000000 0.034133299999999998 0.034133299999999998 4000005
geomTransf PDelta 4000006 1.0 0.0 -0.0
element elasticBeamColumn 4000006 3000008 3000010 0.64 2900000000.00 966666666.67 0.068266700000000000 0.034133299999999998 0.034133299999999998 4000006
geomTransf PDelta 4000007 1.0 0.0 -0.0
element elasticBeamColumn 4000007 3000010 3000012 0.64 2900000000.00 966666666.67 0.068266700000000000 0.034133299999999998 0.034133299999999998 4000007
geomTransf PDelta 4000008 1.0 0.0 -0.0
element elasticBeamColumn 4000008 3000012 3000005 0.64 2900000000.00 966666666.67 0.068266700000000000 0.034133299999999998 0.034133299999999998 4000008

# horizontal beam column elements
geomTransf PDelta 4000009 0.0 0.0 1.0
element elasticBeamColumn 4000009 3000004 3000013 0.64 2900000000.00 966666666.67 0.068266700000000000 0.034133299999999998 0.034133299999999998 4000009
geomTransf PDelta 4000010 0.0 0.0 1.0
element elasticBeamColumn 4000010 3000013 3000014 0.64 2900000000.00 966666666.67 0.068266700000000000 0.034133299999999998 0.034133299999999998 4000010
geomTransf PDelta 4000011 0.0 0.0 1.0
element elasticBeamColumn 4000011 3000014 3000015 0.64 2900000000.00 966666666.67 0.068266700000000000 0.034133299999999998 0.034133299999999998 4000011
geomTransf PDelta 4000012 0.0 0.0 1.0
element elasticBeamColumn 4000012 3000015 3000016 0.64 2900000000.00 966666666.67 0.068266700000000000 0.034133299999999998 0.034133299999999998 4000012
geomTransf PDelta 4000013 0.0 0.0 1.0
element elasticBeamColumn 4000013 3000016 3000006 0.64 2900000000.00 966666666.67 0.068266700000000000 0.034133299999999998 0.034133299999999998 4000013

# zero_length_elements zeroLength
model basic -ndm 3 -ndf 6

# Spring element structure base nodes (assign floor 1 material)
element zeroLength 600001 5000001 3000001 -mat 6 6 6 6 501 6 -dir 1 2 3 4 5 6
element zeroLength 600002 5000002 3000002 -mat 6 6 6 6 501 6 -dir 1 2 3 4 5 6

#Constrain the translational DOF with a multi-point constraint - otherwise node 300001 & 300002 are unstable, high acc. & no mass assigned to them - follows MRF_2Story_ConcentratedExample
#          			retained constrained DOF_1 DOF_2 ... DOF_n
equalDOF 5000001 3000001 1 2 3
equalDOF 5000002 3000002 1 2 3

# per floor *see schema
element zeroLength 600003 3000003 3000004 -mat 6 6 6 6 501 6 -dir 1 2 3 4 5 6
equalDOF 3000003 3000004 1 2 3
element zeroLength 600004 3000005 3000006 -mat 6 6 6 6 501 6 -dir 1 2 3 4 5 6
equalDOF 3000005 3000006 1 2 3

puts "Finished creating all structure elements..."

} elseif {$process_id == 1} {
model basic -ndm 3 -ndf 4
# up_elements 20_8_BrickUP
element 20_8_BrickUP 641 3587 3586 3814 3815 3589 3588 3816 3817 3591 3818 3819 3820 3594 3821 3822 3823 3597 3596 3824 3825 11 2200000 1.0 1.0 1.0 1.0 0.0 0.0 -9.81
element 20_8_BrickUP 642 3599 3598 3826 3827 3587 3586 3814 3815 3601 3828 3829 3830 3591 3818 3819 3820 3604 3603 3831 3832 71 2200000 1.0 1.0 1.0 1.0 0.0 0.0 -9.81
element 20_8_BrickUP 643 3606 3605 3833 3834 3599 3598 3826 3827 3608 3835 3836 3837 3601 3828 3829 3830 3611 3610 3838 3839 70 2200000 1.0 1.0 1.0 1.0 0.0 0.0 -9.81
element 20_8_BrickUP 644 3613 3612 3840 3841 3606 3605 3833 3834 3615 3842 3843 3844 3608 3835 3836 3837 3618 3617 3845 3846 70 2200000 1.0 1.0 1.0 1.0 0.0 0.0 -9.81
element 20_8_BrickUP 645 3620 3619 3847 3848 3613 3612 3840 3841 3622 3849 3850 3851 3615 3842 3843 3844 3625 3624 3852 3853 70 2200000 1.0 1.0 1.0 1.0 0.0 0.0 -9.81
element 20_8_BrickUP 646 3627 3626 3854 3855 3620 3619 3847 3848 3629 3856 3857 3858 3622 3849 3850 3851 3632 3631 3859 3860 70 2200000 1.0 1.0 1.0 1.0 0.0 0.0 -9.81
element 20_8_BrickUP 647 3634 3633 3861 3862 3627 3626 3854 3855 3636 3863 3864 3865 3629 3856 3857 3858 3639 3638 3866 3867 70 2200000 1.0 1.0 1.0 1.0 0.0 0.0 -9.81
element 20_8_BrickUP 648 3641 3640 3868 3869 3634 3633 3861 3862 3643 3870 3871 3872 3636 3863 3864 3865 3646 3645 3873 3874 70 2200000 1.0 1.0 1.0 1.0 0.0 0.0 -9.81
element 20_8_BrickUP 649 3648 3647 3875 3876 3641 3640 3868 3869 3650 3877 3878 3879 3643 3870 3871 3872 3653 3652 3880 3881 70 2200000 1.0 1.0 1.0 1.0 0.0 0.0 -9.81
element 20_8_BrickUP 650 3655 3654 3882 3883 3648 3647 3875 3876 3657 3884 3885 3886 3650 3877 3878 3879 3660 3659 3887 3888 70 2200000 1.0 1.0 1.0 1.0 0.0 0.0 -9.81
element 20_8_BrickUP 651 3662 3661 3889 3890 3655 3654 3882 3883 3664 3891 3892 3893 3657 3884 3885 3886 3667 3666 3894 3895 70 2200000 1.0 1.0 1.0 1.0 0.0 0.0 -9.81
element 20_8_BrickUP 652 3669 3668 3896 3897 3662 3661 3889 3890 3671 3898 3899 3900 3664 3891 3892 3893 3674 3673 3901 3902 70 2200000 1.0 1.0 1.0 1.0 0.0 0.0 -9.81
element 20_8_BrickUP 653 3676 3675 3903 3904 3669 3668 3896 3897 3678 3905 3906 3907 3671 3898 3899 3900 3681 3680 3908 3909 70 2200000 1.0 1.0 1.0 1.0 0.0 0.0 -9.81
element 20_8_BrickUP 654 3683 3682 3910 3911 3676 3675 3903 3904 3685 3912 3913 3914 3678 3905 3906 3907 3688 3687 3915 3916 70 2200000 1.0 1.0 1.0 1.0 0.0 0.0 -9.81
element 20_8_BrickUP 655 3690 3689 3917 3918 3683 3682 3910 3911 3692 3919 3920 3921 3685 3912 3913 3914 3695 3694 3922 3923 70 2200000 1.0 1.0 1.0 1.0 0.0 0.0 -9.81
element 20_8_BrickUP 656 3697 3696 3924 3925 3690 3689 3917 3918 3699 3926 3927 3928 3692 3919 3920 3921 3702 3701 3929 3930 70 2200000 1.0 1.0 1.0 1.0 0.0 0.0 -9.81
element 20_8_BrickUP 657 3704 3703 3931 3932 3697 3696 3924 3925 3706 3933 3934 3935 3699 3926 3927 3928 3709 3708 3936 3937 70 2200000 1.0 1.0 1.0 1.0 0.0 0.0 -9.81
element 20_8_BrickUP 658 3711 3710 3938 3939 3704 3703 3931 3932 3713 3940 3941 3942 3706 3933 3934 3935 3716 3715 3943 3944 20 2200000 1.0 1.0 1.0 1.0 0.0 0.0 -9.81
element 20_8_BrickUP 659 3718 3717 3945 3946 3711 3710 3938 3939 3720 3947 3948 3949 3713 3940 3941 3942 3723 3722 3950 3951 90 2200000 1.0 1.0 1.0 1.0 0.0 0.0 -9.81
element 20_8_BrickUP 660 3725 3724 3952 3953 3718 3717 3945 3946 3727 3954 3955 3956 3720 3947 3948 3949 3730 3729 3957 3958 90 2200000 1.0 1.0 1.0 1.0 0.0 0.0 -9.81
# ... 820 like lines cut

puts "Finished creating all soil elements..."

} elseif {$process_id == 2} {
model basic -ndm 3 -ndf 4
# up_elements 20_8_BrickUP
element 20_8_BrickUP 1433 8135 8134 8362 8363 8137 8136 8364 8365 8139 8366 8367 8368 8142 8369 8370 8371 8145 8144 8372 8373 11 2200000 1.0 1.0 1.0 1.0 0.0 0.0 -9.81
element 20_8_BrickUP 1434 8147 8146 8374 8375 8135 8134 8362 8363 8149 8376 8377 8378 8139 8366 8367 8368 8152 8151 8379 8380 71 2200000 1.0 1.0 1.0 1.0 0.0 0.0 -9.81
element 20_8_BrickUP 1435 8154 8153 8381 8382 8147 8146 8374 8375 8156 8383 8384 8385 8149 8376 8377 8378 8159 8158 8386 8387 70 2200000 1.0 1.0 1.0 1.0 0.0 0.0 -9.81
element 20_8_BrickUP 1436 8161 8160 8388 8389 8154 8153 8381 8382 8163 8390 8391 8392 8156 8383 8384 8385 8166 8165 8393 8394 70 2200000 1.0 1.0 1.0 1.0 0.0 0.0 -9.81
element 20_8_BrickUP 1437 8168 8167 8395 8396 8161 8160 8388 8389 8170 8397 8398 8399 8163 8390 8391 8392 8173 8172 8400 8401 70 2200000 1.0 1.0 1.0 1.0 0.0 0.0 -9.81
element 20_8_BrickUP 1438 8175 8174 8402 8403 8168 8167 8395 8396 8177 8404 8405 8406 8170 8397 8398 8399 8180 8179 8407 8408 70 2200000 1.0 1.0 1.0 1.0 0.0 0.0 -9.81
element 20_8_BrickUP 1439 8182 8181 8409 8410 8175 8174 8402 8403 8184 8411 8412 8413 8177 8404 8405 8406 8187 8186 8414 8415 70 2200000 1.0 1.0 1.0 1.0 0.0 0.0 -9.81
element 20_8_BrickUP 1440 8189 8188 8416 8417 8182 8181 8409 8410 8191 8418 8419 8420 8184 8411 8412 8413 8194 8193 8421 8422 70 2200000 1.0 1.0 1.0 1.0 0.0 0.0 -9.81
element 20_8_BrickUP 1441 8196 8195 8423 8424 8189 8188 8416 8417 8198 8425 8426 8427 8191 8418 8419 8420 8201 8200 8428 8429 70 2200000 1.0 1.0 1.0 1.0 0.0 0.0 -9.81
element 20_8_BrickUP 1442 8203 8202 8430 8431 8196 8195 8423 8424 8205 8432 8433 8434 8198 8425 8426 8427 8208 8207 8435 8436 70 2200000 1.0 1.0 1.0 1.0 0.0 0.0 -9.81
element 20_8_BrickUP 1443 8210 8209 8437 8438 8203 8202 8430 8431 8212 8439 8440 8441 8205 8432 8433 8434 8215 8214 8442 8443 70 2200000 1.0 1.0 1.0 1.0 0.0 0.0 -9.81
element 20_8_BrickUP 1444 8217 8216 8444 8445 8210 8209 8437 8438 8219 8446 8447 8448 8212 8439 8440 8441 8222 8221 8449 8450 70 2200000 1.0 1.0 1.0 1.0 0.0 0.0 -9.81
element 20_8_BrickUP 1445 8224 8223 8451 8452 8217 8216 8444 8445 8226 8453 8454 8455 8219 8446 8447 8448 8229 8228 8456 8457 70 2200000 1.0 1.0 1.0 1.0 0.0 0.0 -9.81
element 20_8_BrickUP 1446 8231 8230 8458 8459 8224 8223 8451 8452 8233 8460 8461 8462 8226 8453 8454 8455 8236 8235 8463 8464 70 2200000 1.0 1.0 1.0 1.0 0.0 0.0 -9.81
element 20_8_BrickUP 1447 8238 8237 8465 8466 8231 8230 8458 8459 8240 8467 8468 8469 8233 8460 8461 8462 8243 8242 8470 8471 70 2200000 1.0 1.0 1.0 1.0 0.0 0.0 -9.81
element 20_8_BrickUP 1448 8245 8244 8472 8473 8238 8237 8465 8466 8247 8474 8475 8476 8240 8467 8468 8469 8250 8249 8477 8478 70 2200000 1.0 1.0 1.0 1.0 0.0 0.0 -9.81
element 20_8_BrickUP 1449 8252 8251 8479 8480 8245 8244 8472 8473 8254 8481 8482 8483 8247 8474 8475 8476 8257 8256 8484 8485 70 2200000 1.0 1.0 1.0 1.0 0.0 0.0 -9.81
element 20_8_BrickUP 1450 8259 8258 8486 8487 8252 8251 8479 8480 8261 8488 8489 8490 8254 8481 8482 8483 8264 8263 8491 8492 20 2200000 1.0 1.0 1.0 1.0 0.0 0.0 -9.81
element 20_8_BrickUP 1451 8266 8265 8493 8494 8259 8258 8486 8487 8268 8495 8496 8497 8261 8488 8489 8490 8271 8270 8498 8499 90 2200000 1.0 1.0 1.0 1.0 0.0 0.0 -9.81
element 20_8_BrickUP 1452 8273 8272 8500 8501 8266 8265 8493 8494 8275 8502 8503 8504 8268 8495 8496 8497 8278 8277 8505 8506 90 2200000 1.0 1.0 1.0 1.0 0.0 0.0 -9.81
# ... 540 like lines cut

puts "Finished creating all soil elements..."

}
puts "Finished creating all elements..."

#--------------------------------------------------------------------------------------------------
#          4 -  BOUNDARY CONDITIONS
#--------------------------------------------------------------------------------------------------

if {$process_id == 0} {
# Soil Boundary Conditions
model basic -ndm 3 -ndf 4
# Constraints.sp fix
# Soil fix base nodes 4DOF
fix 239 1 1 1 0
fix 240 1 1 1 0
fix 388 1 1 1 0
fix 532 1 1 1 0
fix 533 1 1 1 0
fix 618 1 1 1 0
fix 760 1 1 1 0
fix 761 1 1 1 0
fix 846 1 1 1 0
fix 988 1 1 1 0
fix 989 1 1 1 0
fix 1074 1 1 1 0
fix 1216 1 1 1 0
fix 1217 1 1 1 0
fix 1302 1 1 1 0
fix 1444 1 1 1 0
fix 1445 1 1 1 0
fix 1530 1 1 1 0
fix 1672 1 1 1 0
fix 1673 1 1 1 0
# ... 28 like lines cut
# Soil fix PWP above zgwt - 4DOF only
fix 3 0 0 0 1
fix 4 0 0 0 1
fix 7 0 0 0 1
fix 8 0 0 0 1
fix 23 0 0 0 1
fix 24 0 0 0 1
fix 250 0 0 0 1
fix 252 0 0 0 1
fix 262 0 0 0 1
fix 394 0 0 0 1
fix 395 0 0 0 1
fix 396 0 0 0 1
fix 397 0 0 0 1
fix 406 0 0 0 1
fix 407 0 0 0 1
fix 539 0 0 0 1
fix 540 0 0 0 1
fix 546 0 0 0 1
fix 622 0 0 0 1
fix 623 0 0 0 1
# ... 160 like lines cut
# Soil fix Y front & back - 4DOF
fix 35 0 1 0 0
fix 47 0 1 0 0
fix 59 0 1 0 0
fix 71 0 1 0 0
fix 83 0 1 0 0
fix 95 0 1 0 0
fix 107 0 1 0 0
fix 119 0 1 0 0
fix 131 0 1 0 0
fix 143 0 1 0 0
fix 155 0 1 0 0
fix 167 0 1 0 0
fix 179 0 1 0 0
fix 191 0 1 0 0
fix 203 0 1 0 0
fix 215 0 1 0 0
fix 227 0 1 0 0
fix 269 0 1 0 0
fix 276 0 1 0 0
fix 283 0 1 0 0
# ... 568 like lines cut
# Soil fix Y front & back + PWP above zgwt - 4DOF only
fix 3 0 1 0 1
fix 7 0 1 0 1
fix 23 0 1 0 1
fix 250 0 1 0 1
fix 252 0 1 0 1
fix 262 0 1 0 1
fix 394 0 1 0 1
fix 396 0 1 0 1
fix 406 0 1 0 1
fix 539 0 1 0 1
fix 540 0 1 0 1
fix 546 0 1 0 1
fix 622 0 1 0 1
fix 624 0 1 0 1
fix 634 0 1 0 1
fix 767 0 1 0 1
fix 768 0 1 0 1
fix 774 0 1 0 1
fix 850 0 1 0 1
fix 852 0 1 0 1
# ... 100 like lines cut
# Foundation Boundary Conditions 4DOF
# Constraints.sp fix
# Found. fix PWP
fix 100001 0 0 0 1
fix 100002 0 0 0 1
fix 100002 0 0 0 1
fix 100003 0 0 0 1
fix 100005 0 0 0 1
fix 100005 0 0 0 1
fix 100006 0 0 0 1
fix 100006 0 0 0 1
fix 100006 0 0 0 1
fix 100007 0 0 0 1
fix 100007 0 0 0 1
fix 100008 0 0 0 1
fix 100021 0 0 0 1
fix 100022 0 0 0 1
fix 100022 0 0 0 1
fix 100023 0 0 0 1
fix 100033 0 0 0 1
fix 100033 0 0 0 1
fix 100034 0 0 0 1
fix 100034 0 0 0 1
# ... 130 like lines cut
# Found. fix Y+PWP
fix 100002 0 1 0 1
fix 100003 0 1 0 1
fix 100006 0 1 0 1
fix 100007 0 1 0 1
fix 100022 0 1 0 1
fix 100023 0 1 0 1
fix 100034 0 1 0 1
fix 100035 0 1 0 1
fix 100045 0 1 0 1
fix 100046 0 1 0 1
fix 100047 0 1 0 1
fix 100048 0 1 0 1
fix 100057 0 1 0 1
fix 100058 0 1 0 1
fix 100064 0 1 0 1
fix 100065 0 1 0 1
fix 100071 0 1 0 1
fix 100073 0 1 0 1
fix 100083 0 1 0 1
fix 100090 0 1 0 1
# ... 52 like lines cut
model basic -ndm 3 -ndf 3
# Soil fix base nodes 3DOF
fix 243 1 1 1
fix 390 1 1 1
fix 534 1 1 1
fix 535 1 1 1
fix 536 1 1 1
fix 619 1 1 1
fix 620 1 1 1
fix 762 1 1 1
fix 763 1 1 1
fix 764 1 1 1
fix 847 1 1 1
fix 848 1 1 1
fix 990 1 1 1
fix 991 1 1 1
fix 992 1 1 1
fix 1075 1 1 1
fix 1076 1 1 1
fix 1218 1 1 1
fix 1219 1 1 1
fix 1220 1 1 1
# ... 57 like lines cut
# Soil fix Y front & back - 3DOF
fix 19 0 1 0
fix 31 0 1 0
fix 43 0 1 0
fix 55 0 1 0
fix 67 0 1 0
fix 79 0 1 0
fix 91 0 1 0
fix 103 0 1 0
fix 115 0 1 0
fix 127 0 1 0
fix 139 0 1 0
fix 151 0 1 0
fix 163 0 1 0
fix 175 0 1 0
fix 187 0 1 0
fix 199 0 1 0
fix 211 0 1 0
fix 223 0 1 0
fix 235 0 1 0
fix 247 0 1 0
# ... 1318 like lines cut
# Foundation Boundary Conditions 3DOF
model basic -ndm 3 -ndf 3
# Constraints.sp fix
# Found. Y
fix 100010 0 1 0
fix 100014 0 1 0
fix 100018 0 1 0
fix 100019 0 1 0
fix 100026 0 1 0
fix 100030 0 1 0
fix 100031 0 1 0
fix 100038 0 1 0
fix 100042 0 1 0
fix 100043 0 1 0
fix 100051 0 1 0
fix 100054 0 1 0
fix 100055 0 1 0
fix 100056 0 1 0
fix 100061 0 1 0
fix 100062 0 1 0
fix 100063 0 1 0
fix 100068 0 1 0
fix 100069 0 1 0
fix 100070 0 1 0
# ... 98 like lines cut

# Structure Boundary Conditions
model basic -ndm 3 -ndf 6
# Constraints.sp fix
fix 3000001 0 1 0 1 0 1
fix 3000002 0 1 0 1 0 1
fix 3000003 0 1 0 1 0 1
fix 3000004 0 1 0 1 0 1
fix 3000005 0 1 0 1 0 1
fix 3000006 0 1 0 1 0 1
fix 3000007 0 1 0 1 0 1
fix 3000008 0 1 0 1 0 1
fix 3000009 0 1 0 1 0 1
fix 3000010 0 1 0 1 0 1
fix 3000011 0 1 0 1 0 1
fix 3000012 0 1 0 1 0 1
fix 3000013 0 1 0 1 0 1
fix 3000014 0 1 0 1 0 1
fix 3000015 0 1 0 1 0 1
fix 3000016 0 1 0 1 0 1
fix 5000001 0 1 0 1 0 1
fix 5000002 0 1 0 1 0 1

# Nodal masses - Structure
mass 3000003 3.446 0.0 0.0 0.0 0.0 0.0
mass 3000004 3.446 0.0 0.0 0.0 0.0 0.0
mass 3000005 3.446 0.0 0.0 0.0 0.0 0.0
mass 3000006 3.446 0.0 0.0 0.0 0.0 0.0

# Constraints.mp EqualDOF
model basic -ndm 3 -ndf 6
#Foundation-Structure Columns equalDOF condition
equalDOF 100008 5000001 1 2 3
equalDOF 100279 5000002 1 2 3

# Soil-Found int. XYZ
equalDOF 4973 100034 1 2 3
equalDOF 4974 100033 1 2 3
equalDOF 4976 100037 1 2 3
equalDOF 5110 100064 1 2 3
equalDOF 5111 100066 1 2 3
equalDOF 5189 100038 1 2 3
equalDOF 5191 100040 1 2 3
equalDOF 5311 100068 1 2 3
equalDOF 5184 100035 1 2 3
equalDOF 5185 100036 1 2 3
equalDOF 5190 100039 1 2 3
equalDOF 5307 100065 1 2 3
equalDOF 5310 100067 1 2 3
equalDOF 5384 100092 1 2 3
equalDOF 5386 100094 1 2 3
equalDOF 5506 100110 1 2 3
equalDOF 5379 100090 1 2 3
equalDOF 5380 100091 1 2 3
equalDOF 5385 100093 1 2 3
equalDOF 5502 100108 1 2 3
# ... 49 like lines cut

# Soil-Found int. X
equalDOF 4973 100034 1
equalDOF 4974 100033 1
equalDOF 4976 100037 1
equalDOF 5110 100064 1
equalDOF 5111 100066 1
equalDOF 6549 100336 1
equalDOF 6550 100337 1
equalDOF 6555 100339 1
equalDOF 6672 100354 1
equalDOF 6675 100355 1
equalDOF 4978 100042 1
equalDOF 4979 100041 1
equalDOF 5113 100069 1
equalDOF 6779 100342 1
equalDOF 6780 100341 1
equalDOF 6924 100357 1
equalDOF 4966 100022 1
equalDOF 4967 100021 1
equalDOF 4969 100025 1
equalDOF 5106 100057 1
# ... 38 like lines cut

} elseif {$process_id == 1} {
# Soil Boundary Conditions
model basic -ndm 3 -ndf 4
# Constraints.sp fix
# Soil fix base nodes 4DOF
fix 237 1 1 1 0
fix 238 1 1 1 0
fix 239 1 1 1 0
fix 240 1 1 1 0
fix 387 1 1 1 0
fix 388 1 1 1 0
fix 3724 1 1 1 0
fix 3725 1 1 1 0
fix 3810 1 1 1 0
fix 3952 1 1 1 0
fix 3953 1 1 1 0
fix 4038 1 1 1 0
fix 4180 1 1 1 0
fix 4181 1 1 1 0
fix 4266 1 1 1 0
fix 4408 1 1 1 0
fix 4409 1 1 1 0
fix 4494 1 1 1 0
fix 4636 1 1 1 0
fix 4637 1 1 1 0
# ... 58 like lines cut
# Soil fix PWP above zgwt - 4DOF only
fix 1 0 0 0 1
fix 2 0 0 0 1
fix 3 0 0 0 1
fix 4 0 0 0 1
fix 5 0 0 0 1
fix 6 0 0 0 1
fix 7 0 0 0 1
fix 8 0 0 0 1
fix 21 0 0 0 1
fix 22 0 0 0 1
fix 23 0 0 0 1
fix 24 0 0 0 1
fix 249 0 0 0 1
fix 250 0 0 0 1
fix 251 0 0 0 1
fix 252 0 0 0 1
fix 261 0 0 0 1
fix 262 0 0 0 1
fix 3586 0 0 0 1
fix 3587 0 0 0 1
# ... 133 like lines cut
# Soil fix Y front & back - 4DOF
fix 34 0 1 0 0
fix 35 0 1 0 0
fix 46 0 1 0 0
fix 47 0 1 0 0
fix 58 0 1 0 0
fix 59 0 1 0 0
fix 70 0 1 0 0
fix 71 0 1 0 0
fix 82 0 1 0 0
fix 83 0 1 0 0
fix 94 0 1 0 0
fix 95 0 1 0 0
fix 106 0 1 0 0
fix 107 0 1 0 0
fix 118 0 1 0 0
fix 119 0 1 0 0
fix 130 0 1 0 0
fix 131 0 1 0 0
fix 142 0 1 0 0
fix 143 0 1 0 0
# ... 846 like lines cut
# Soil fix Y front & back + PWP above zgwt - 4DOF only
fix 2 0 1 0 1
fix 3 0 1 0 1
fix 6 0 1 0 1
fix 7 0 1 0 1
fix 22 0 1 0 1
fix 23 0 1 0 1
fix 249 0 1 0 1
fix 250 0 1 0 1
fix 251 0 1 0 1
fix 252 0 1 0 1
fix 261 0 1 0 1
fix 262 0 1 0 1
fix 3586 0 1 0 1
fix 3588 0 1 0 1
fix 3598 0 1 0 1
fix 3731 0 1 0 1
fix 3732 0 1 0 1
fix 3738 0 1 0 1
fix 3814 0 1 0 1
fix 3816 0 1 0 1
# ... 82 like lines cut
model basic -ndm 3 -ndf 3
# Soil fix base nodes 3DOF
fix 241 1 1 1
fix 242 1 1 1
fix 243 1 1 1
fix 244 1 1 1
fix 389 1 1 1
fix 390 1 1 1
fix 391 1 1 1
fix 3727 1 1 1
fix 3811 1 1 1
fix 3954 1 1 1
fix 3955 1 1 1
fix 3956 1 1 1
fix 4039 1 1 1
fix 4040 1 1 1
fix 4182 1 1 1
fix 4183 1 1 1
fix 4184 1 1 1
fix 4267 1 1 1
fix 4268 1 1 1
fix 4410 1 1 1
# ... 101 like lines cut
# Soil fix Y front & back - 3DOF
fix 10 0 1 0
fix 14 0 1 0
fix 18 0 1 0
fix 19 0 1 0
fix 26 0 1 0
fix 30 0 1 0
fix 31 0 1 0
fix 38 0 1 0
fix 42 0 1 0
fix 43 0 1 0
fix 50 0 1 0
fix 54 0 1 0
fix 55 0 1 0
fix 62 0 1 0
fix 66 0 1 0
fix 67 0 1 0
fix 74 0 1 0
fix 78 0 1 0
fix 79 0 1 0
fix 86 0 1 0
# ... 1788 like lines cut
# Constraints.mp EqualDOF
model basic -ndm 3 -ndf 3
# Soil Edge Boundaries
equalDOF 1 11555 1
equalDOF 2 11554 1
equalDOF 5 11557 1
equalDOF 6 11556 1
equalDOF 9 11559 1
equalDOF 13 11562 1
equalDOF 17 11565 1
equalDOF 18 11564 1
equalDOF 21 11567 1
equalDOF 22 11566 1
equalDOF 25 11569 1
equalDOF 29 11572 1
equalDOF 30 11571 1
equalDOF 33 11574 1
equalDOF 34 11573 1
equalDOF 37 11576 1
equalDOF 41 11579 1
equalDOF 42 11578 1
equalDOF 45 11581 1
equalDOF 46 11580 1
# ... 145 like lines cut

} elseif {$process_id == 2} {
# Soil Boundary Conditions
model basic -ndm 3 -ndf 4
# Constraints.sp fix
# Soil fix base nodes 4DOF
fix 8272 1 1 1 0
fix 8273 1 1 1 0
fix 8358 1 1 1 0
fix 8500 1 1 1 0
fix 8501 1 1 1 0
fix 8586 1 1 1 0
fix 8728 1 1 1 0
fix 8729 1 1 1 0
fix 8814 1 1 1 0
fix 8956 1 1 1 0
fix 8957 1 1 1 0
fix 9042 1 1 1 0
fix 9184 1 1 1 0
fix 9185 1 1 1 0
fix 9270 1 1 1 0
fix 9412 1 1 1 0
fix 9413 1 1 1 0
fix 9498 1 1 1 0
fix 9640 1 1 1 0
fix 9641 1 1 1 0
# ... 25 like lines cut
# Soil fix PWP above zgwt - 4DOF only
fix 8134 0 0 0 1
fix 8135 0 0 0 1
fix 8136 0 0 0 1
fix 8137 0 0 0 1
fix 8146 0 0 0 1
fix 8147 0 0 0 1
fix 8279 0 0 0 1
fix 8280 0 0 0 1
fix 8286 0 0 0 1
fix 8362 0 0 0 1
fix 8363 0 0 0 1
fix 8364 0 0 0 1
fix 8365 0 0 0 1
fix 8374 0 0 0 1
fix 8375 0 0 0 1
fix 8507 0 0 0 1
fix 8508 0 0 0 1
fix 8514 0 0 0 1
fix 8590 0 0 0 1
fix 8591 0 0 0 1
# ... 115 like lines cut
# Soil fix Y front & back - 4DOF
fix 8153 0 1 0 0
fix 8160 0 1 0 0
fix 8167 0 1 0 0
fix 8174 0 1 0 0
fix 8181 0 1 0 0
fix 8188 0 1 0 0
fix 8195 0 1 0 0
fix 8202 0 1 0 0
fix 8209 0 1 0 0
fix 8216 0 1 0 0
fix 8223 0 1 0 0
fix 8230 0 1 0 0
fix 8237 0 1 0 0
fix 8244 0 1 0 0
fix 8251 0 1 0 0
fix 8258 0 1 0 0
fix 8265 0 1 0 0
fix 8290 0 1 0 0
fix 8294 0 1 0 0
fix 8298 0 1 0 0
# ... 490 like lines cut
# Soil fix Y front & back + PWP above zgwt - 4DOF only
fix 8134 0 1 0 1
fix 8136 0 1 0 1
fix 8146 0 1 0 1
fix 8279 0 1 0 1
fix 8280 0 1 0 1
fix 8286 0 1 0 1
fix 8362 0 1 0 1
fix 8364 0 1 0 1
fix 8374 0 1 0 1
fix 8507 0 1 0 1
fix 8508 0 1 0 1
fix 8514 0 1 0 1
fix 8590 0 1 0 1
fix 8592 0 1 0 1
fix 8602 0 1 0 1
fix 8735 0 1 0 1
fix 8736 0 1 0 1
fix 8742 0 1 0 1
fix 8818 0 1 0 1
fix 8820 0 1 0 1
# ... 70 like lines cut
model basic -ndm 3 -ndf 3
# Soil fix base nodes 3DOF
fix 8275 1 1 1
fix 8359 1 1 1
fix 8502 1 1 1
fix 8503 1 1 1
fix 8504 1 1 1
fix 8587 1 1 1
fix 8588 1 1 1
fix 8730 1 1 1
fix 8731 1 1 1
fix 8732 1 1 1
fix 8815 1 1 1
fix 8816 1 1 1
fix 8958 1 1 1
fix 8959 1 1 1
fix 8960 1 1 1
fix 9043 1 1 1
fix 9044 1 1 1
fix 9186 1 1 1
fix 9187 1 1 1
fix 9188 1 1 1
# ... 52 like lines cut
# Soil fix Y front & back - 3DOF
fix 8144 0 1 0
fix 8151 0 1 0
fix 8158 0 1 0
fix 8165 0 1 0
fix 8172 0 1 0
fix 8179 0 1 0
fix 8186 0 1 0
fix 8193 0 1 0
fix 8200 0 1 0
fix 8207 0 1 0
fix 8214 0 1 0
fix 8221 0 1 0
fix 8228 0 1 0
fix 8235 0 1 0
fix 8242 0 1 0
fix 8249 0 1 0
fix 8256 0 1 0
fix 8263 0 1 0
fix 8270 0 1 0
fix 8277 0 1 0
# ... 1140 like lines cut
}
puts "Finished creating all boundary conditions..."

#--------------------------------------------------------------------------------------------------
#          5 - UPDATE SOIL MATERIAL STAGE ELASTIC
#--------------------------------------------------------------------------------------------------

# soil material stage : elastic
updateMaterialStage -material 11 -stage 0
updateMaterialStage -material 20 -stage 0
updateMaterialStage -material 70 -stage 0
updateMaterialStage -material 71 -stage 0
updateMaterialStage -material 90 -stage 0

#--------------------------------------------------------------------------------------------------
#          6 - RAYLEIGH DAMPING - SOIL & STRUCT.
#--------------------------------------------------------------------------------------------------

# Misc_commands region

# Soil Rayleigh Damping
set pi 3.141592654
set damp 0.03
set omega1 [expr 2*$pi*3.96]
set omega2 [expr 2*$pi*11.88]
set a0 [expr 2*$damp*$omega1*$omega2/($omega1 + $omega2)]
set a1 [expr 2*$damp/($omega1 + $omega2)]

region 4 \
-eleRange 1 2032 \
-rayleigh $a0 0.0 $a1 0.0

puts "Soil Rayleigh Damping coefficients: a_0 = $a0;  a_1 = $a1"

set T1 0.86626
set T2 0.05051
puts "T1 = $T1;  T_2 = $T2"

# Structure Rayleigh Damping
set pi 3.141592654
set damp 0.05
set f1 [expr 1/$T1]
set f2 [expr 1/$T2]
set omega1 [expr 2.0*$pi*$f1]
set omega2 [expr 2.0*$pi*$f2]
set a0 [expr 2*$damp*$omega1*$omega2/($omega1 + $omega2)]
set a1 [expr 2*$damp/($omega1 + $omega2)]

region 700 \
-eleRange 600001 600004 \
-rayleigh 0.0 0.0 0.0 $a1;          # select only zero lengths and assign only stiffness-proportional term a1

region 800 \
-eleRange 4000001 4000013 \
-rayleigh $a0 0.0 0.0 0.0;          # select only stiff beams with mass and assign only mass-proportional term a0

region 900 \
-node 3000003 3000004 3000005 3000006  \
-rayleigh $a0 0.0 0.0 0.0;          # assign mass proportional damping to structure (only assigns to nodes with mass)

puts "Structure Rayleigh Damping coefficients: a_0 = $a0;  a_1 = $a1"

#--------------------------------------------------------------------------------------------------
#          7 - GEOSTATIC RECORDER
#--------------------------------------------------------------------------------------------------

set dataDir1 NM/GM[lindex $matGMid $idgmi-1]
set dataDir2 NM
file mkdir $dataDir1
file mkdir $dataDir2

if {$process_id == 0} {
recorder Node -file $dataDir1/Found_disp_geostatic_idCf48_GM[lindex $matGMid $idgmi-1]-part0.out -time -node 100156 -dof 1 2 3 disp
}
if {$process_id == 0} {
recorder Node -file $dataDir1/Roof_disp_geostatic_idCf48_GM[lindex $matGMid $idgmi-1]-part0.out -time -node 3000004 -dof 1 3 disp

}
set recDTstress 0.1
if {$process_id == 0} {
set soilelement {121 123 124 126 127 129 130 131 139 140 161 163 164 166 167 169 170 171 179 180}
   eval "recorder Element -file $dataDir1/soilstress23_geostatic_idCf48_GM[lindex $matGMid $idgmi-1]-part0.out -time -dT $recDTstress -ele $soilelement material 23 stress"
   eval "recorder Element -file $dataDir1/soilstress27_geostatic_idCf48_GM[lindex $matGMid $idgmi-1]-part0.out -time -dT $recDTstress -ele $soilelement material 27 stress"
   eval "recorder Element -file $dataDir1/soilstress26_geostatic_idCf48_GM[lindex $matGMid $idgmi-1]-part0.out -time -dT $recDTstress -ele $soilelement material 26 stress"
} elseif {$process_id == 1} {
set soilelement {846 847 849 850 851 859 860 883 884 886 887 888 896 897 985 986 988 989 990 998 999 1019 1020 1022 1023 1024 1032 1033 1121 1122 1124 1125 1126 1134 1135 1158 1159 1161 1162 1163 1171 1172}
   eval "recorder Element -file $dataDir1/soilstress23_geostatic_idCf48_GM[lindex $matGMid $idgmi-1]-part1.out -time -dT $recDTstress -ele $soilelement material 23 stress"
   eval "recorder Element -file $dataDir1/soilstress27_geostatic_idCf48_GM[lindex $matGMid $idgmi-1]-part1.out -time -dT $recDTstress -ele $soilelement material 27 stress"
   eval "recorder Element -file $dataDir1/soilstress26_geostatic_idCf48_GM[lindex $matGMid $idgmi-1]-part1.out -time -dT $recDTstress -ele $soilelement material 26 stress"
} elseif {$process_id == 2} {
set soilelement {1833 1835 1836 1838 1839 1841 1842 1843 1851 1852 1873 1875 1876 1878 1879 1881 1882 1883 1891 1892}
   eval "recorder Element -file $dataDir1/soilstress23_geostatic_idCf48_GM[lindex $matGMid $idgmi-1]-part2.out -time -dT $recDTstress -ele $soilelement material 23 stress"
   eval "recorder Element -file $dataDir1/soilstress27_geostatic_idCf48_GM[lindex $matGMid $idgmi-1]-part2.out -time -dT $recDTstress -ele $soilelement material 27 stress"
   eval "recorder Element -file $dataDir1/soilstress26_geostatic_idCf48_GM[lindex $matGMid $idgmi-1]-part2.out -time -dT $recDTstress -ele $soilelement material 26 stress"
}
#--------------------------------------------------------------------------------------------------
#          8 - NODAL LOADS STRUCTURE
#--------------------------------------------------------------------------------------------------

set timeSeries_list_of_times_2 {0.0 2500.0 10000.0}
set timeSeries_list_of_values_2 {0.0 1.0 1.0}
timeSeries Path 2 -time $timeSeries_list_of_times_2 -values $timeSeries_list_of_values_2
pattern Plain 500 2 {
if {$process_id == 0} {
 load 3000004 0.0 0.0 -67.6195 0.0 0.0 0.0
 load 3000006 0.0 0.0 -67.6195 0.0 0.0 0.0
}}
puts "Created gravity loading..."

#--------------------------------------------------------------------------------------------------
#          9 - STAGE 1 - GRAVITY ANALYSIS ELASTIC COMMANDS
#--------------------------------------------------------------------------------------------------

puts "BEGIN STAGE 1 - ELASTIC ANALYSIS WITH SOIL SELF WEIGHT"

# analyses command
constraints Penalty 1000000000000000.0 1000000000000000.0
numberer ParallelRCM
system Mumps -ICNTL14 200
test NormDispIncr 0.001 100 2
algorithm KrylovNewton -iterate current
integrator Newmark 0.51 0.26
analysis Transient
analyze 10 500.0

loadConst -time 0.0

puts "DONE STAGE 1 - ELASTIC GRAVITY ANALYSIS WITH SOIL SELF WEIGHT"

#--------------------------------------------------------------------------------------------------
#          10 - UPDATE MATERIAL STAGE TO CONSIDER ELASTOPLASTIC BEHAVIOR
#--------------------------------------------------------------------------------------------------

# soil material stage : elasto-plastic
updateMaterialStage -material 11 -stage 1
updateMaterialStage -material 20 -stage 1
updateMaterialStage -material 70 -stage 1
updateMaterialStage -material 71 -stage 1
updateMaterialStage -material 90 -stage 1

wipeAnalysis
#--------------------------------------------------------------------------------------------------
#          11 - STAGE 2 - GRAVITY ANALYSIS PLASTIC COMMANDS
#--------------------------------------------------------------------------------------------------

puts "BEGIN STAGE 2 - GRAVITY ANALYSIS PLASTIC"
# analyses command
constraints Penalty 1000000000000000.0 1000000000000000.0
numberer ParallelRCM
system Mumps -ICNTL14 200
test NormDispIncr 0.0001 300 1
algorithm KrylovNewton -iterate current
integrator Newmark 0.51 0.26
analysis Transient
analyze 0 0.0

puts "BEGIN PLASTIC ANALYSIS WITH INCREMENTALLY APPLIED STRUCTURE LOAD"
puts "Reducing the time step smoothly from 500.0s to 0.005s"

set DTSum 0.0
set offset 0

set DT0 500.0
set DT1 50.0
set NSteps 10
set LinspaceH [expr ($DT1-$DT0)/($NSteps-1)]
set DTPrev $DT0
for {set i 0} {$i < [expr $NSteps-1]} {incr i; incr offset} {
    puts "($offset) ANALYZE WITH DT = $DTPrev"
    analyze 1 $DTPrev
    set DTSum [expr $DTSum + $DTPrev]
    set DTPrev [expr $DTPrev + $LinspaceH]
}
# up to here SumDT = 2700, end of linear time series
# from here on the time series is constant

set DT0 50.0
set DT1 0.5
set NSteps 10
set LinspaceH [expr ($DT1-$DT0)/($NSteps-1)]
set DTPrev $DT0
for {set i 0} {$i < [expr $NSteps-1]} {incr i; incr offset} {
    puts "($offset) $DTPrev"
    analyze 1 $DTPrev
    set DTSum [expr $DTSum + $DTPrev]
    set DTPrev [expr $DTPrev + $LinspaceH]
}
set DT0 0.5
set DT1 0.005
set NSteps 10
set LinspaceH [expr ($DT1-$DT0)/($NSteps-1)]
set DTPrev $DT0
for {set i 0} {$i < $NSteps} {incr i; incr offset} {
    puts "($offset) $DTPrev"
    analyze 1 $DTPrev
    set DTSum [expr $DTSum + $DTPrev]
    set DTPrev [expr $DTPrev + $LinspaceH]
    if {$i == $NSteps - 2} {
	    set DTPrev $DT1
    }
}
puts "Sum: $DTSum"

puts "DONE STAGE 2 - GRAVITY ANALYSIS PLASTIC"
puts "Model built..."

loadConst 0.0
setTime 0.0

puts "Starting dynamic analysis..."
remove recorders

#--------------------------------------------------------------------------------------------------
#          12 - UPDATE ELEMENT PERMEABILITY VALUES FOR POST-GRAVITY ANALYSIS
#--------------------------------------------------------------------------------------------------

# Misc_commands parameter

if {$process_id == 0} {
# parameter
parameter 1

# addToParameter
addToParameter 1 element 58 hPerm
addToParameter 1 element 78 hPerm
addToParameter 1 element 98 hPerm
addToParameter 1 element 118 hPerm
addToParameter 1 element 138 hPerm
addToParameter 1 element 158 hPerm
addToParameter 1 element 178 hPerm
addToParameter 1 element 198 hPerm
addToParameter 1 element 218 hPerm
addToParameter 1 element 238 hPerm
addToParameter 1 element 258 hPerm
addToParameter 1 element 278 hPerm
addToParameter 1 element 298 hPerm
addToParameter 1 element 318 hPerm
addToParameter 1 element 338 hPerm
addToParameter 1 element 358 hPerm
addToParameter 1 element 378 hPerm
addToParameter 1 element 398 hPerm
addToParameter 1 element 418 hPerm
addToParameter 1 element 438 hPerm
# ... 10 like lines cut

# parameter
parameter 2

# addToParameter
addToParameter 2 element 58 hPerm
addToParameter 2 element 78 hPerm
addToParameter 2 element 98 hPerm
addToParameter 2 element 118 hPerm
addToParameter 2 element 138 hPerm
addToParameter 2 element 158 hPerm
addToParameter 2 element 178 hPerm
addToParameter 2 element 198 hPerm
addToParameter 2 element 218 hPerm
addToParameter 2 element 238 hPerm
addToParameter 2 element 258 hPerm
addToParameter 2 element 278 hPerm
addToParameter 2 element 298 hPerm
addToParameter 2 element 318 hPerm
addToParameter 2 element 338 hPerm
addToParameter 2 element 358 hPerm
addToParameter 2 element 378 hPerm
addToParameter 2 element 398 hPerm
addToParameter 2 element 418 hPerm
addToParameter 2 element 438 hPerm
# ... 10 like lines cut

# parameter
parameter 3

# addToParameter
addToParameter 3 element 58 vPerm
addToParameter 3 element 78 vPerm
addToParameter 3 element 98 vPerm
addToParameter 3 element 118 vPerm
addToParameter 3 element 138 vPerm
addToParameter 3 element 158 vPerm
addToParameter 3 element 178 vPerm
addToParameter 3 element 198 vPerm
addToParameter 3 element 218 vPerm
addToParameter 3 element 238 vPerm
addToParameter 3 element 258 vPerm
addToParameter 3 element 278 vPerm
addToParameter 3 element 298 vPerm
addToParameter 3 element 318 vPerm
addToParameter 3 element 338 vPerm
addToParameter 3 element 358 vPerm
addToParameter 3 element 378 vPerm
addToParameter 3 element 398 vPerm
addToParameter 3 element 418 vPerm
addToParameter 3 element 438 vPerm
# ... 10 like lines cut

# parameter
parameter 4

# addToParameter
addToParameter 4 element 59 hPerm
addToParameter 4 element 60 hPerm
addToParameter 4 element 79 hPerm
addToParameter 4 element 80 hPerm
addToParameter 4 element 99 hPerm
addToParameter 4 element 100 hPerm
addToParameter 4 element 119 hPerm
addToParameter 4 element 120 hPerm
addToParameter 4 element 139 hPerm
addToParameter 4 element 140 hPerm
addToParameter 4 element 159 hPerm
addToParameter 4 element 160 hPerm
addToParameter 4 element 179 hPerm
addToParameter 4 element 180 hPerm
addToParameter 4 element 199 hPerm
addToParameter 4 element 200 hPerm
addToParameter 4 element 219 hPerm
addToParameter 4 element 220 hPerm
addToParameter 4 element 239 hPerm
addToParameter 4 element 240 hPerm
# ... 40 like lines cut

# parameter
parameter 5

# addToParameter
addToParameter 5 element 59 hPerm
addToParameter 5 element 60 hPerm
addToParameter 5 element 79 hPerm
addToParameter 5 element 80 hPerm
addToParameter 5 element 99 hPerm
addToParameter 5 element 100 hPerm
addToParameter 5 element 119 hPerm
addToParameter 5 element 120 hPerm
addToParameter 5 element 139 hPerm
addToParameter 5 element 140 hPerm
addToParameter 5 element 159 hPerm
addToParameter 5 element 160 hPerm
addToParameter 5 element 179 hPerm
addToParameter 5 element 180 hPerm
addToParameter 5 element 199 hPerm
addToParameter 5 element 200 hPerm
addToParameter 5 element 219 hPerm
addToParameter 5 element 220 hPerm
addToParameter 5 element 239 hPerm
addToParameter 5 element 240 hPerm
# ... 40 like lines cut

# parameter
parameter 6

# addToParameter
addToParameter 6 element 59 vPerm
addToParameter 6 element 60 vPerm
addToParameter 6 element 79 vPerm
addToParameter 6 element 80 vPerm
addToParameter 6 element 99 vPerm
addToParameter 6 element 100 vPerm
addToParameter 6 element 119 vPerm
addToParameter 6 element 120 vPerm
addToParameter 6 element 139 vPerm
addToParameter 6 element 140 vPerm
addToParameter 6 element 159 vPerm
addToParameter 6 element 160 vPerm
addToParameter 6 element 179 vPerm
addToParameter 6 element 180 vPerm
addToParameter 6 element 199 vPerm
addToParameter 6 element 200 vPerm
addToParameter 6 element 219 vPerm
addToParameter 6 element 220 vPerm
addToParameter 6 element 239 vPerm
addToParameter 6 element 240 vPerm
# ... 40 like lines cut

# parameter
parameter 7

# addToParameter
addToParameter 7 element 42 hPerm
addToParameter 7 element 43 hPerm
addToParameter 7 element 44 hPerm
addToParameter 7 element 45 hPerm
addToParameter 7 element 46 hPerm
addToParameter 7 element 47 hPerm
addToParameter 7 element 48 hPerm
addToParameter 7 element 49 hPerm
addToParameter 7 element 50 hPerm
addToParameter 7 element 51 hPerm
addToParameter 7 element 52 hPerm
addToParameter 7 element 53 hPerm
addToParameter 7 element 54 hPerm
addToParameter 7 element 55 hPerm
addToParameter 7 element 56 hPerm
addToParameter 7 element 57 hPerm
addToParameter 7 element 62 hPerm
addToParameter 7 element 63 hPerm
addToParameter 7 element 64 hPerm
addToParameter 7 element 65 hPerm
# ... 488 like lines cut

# parameter
parameter 8

# addToParameter
addToParameter 8 element 42 hPerm
addToParameter 8 element 43 hPerm
addToParameter 8 element 44 hPerm
addToParameter 8 element 45 hPerm
addToParameter 8 element 46 hPerm
addToParameter 8 element 47 hPerm
addToParameter 8 element 48 hPerm
addToParameter 8 element 49 hPerm
addToParameter 8 element 50 hPerm
addToParameter 8 element 51 hPerm
addToParameter 8 element 52 hPerm
addToParameter 8 element 53 hPerm
addToParameter 8 element 54 hPerm
addToParameter 8 element 55 hPerm
addToParameter 8 element 56 hPerm
addToParameter 8 element 57 hPerm
addToParameter 8 element 62 hPerm
addToParameter 8 element 63 hPerm
addToParameter 8 element 64 hPerm
addToParameter 8 element 65 hPerm
# ... 488 like lines cut

# parameter
parameter 9

# addToParameter
addToParameter 9 element 42 vPerm
addToParameter 9 element 43 vPerm
addToParameter 9 element 44 vPerm
addToParameter 9 element 45 vPerm
addToParameter 9 element 46 vPerm
addToParameter 9 element 47 vPerm
addToParameter 9 element 48 vPerm
addToParameter 9 element 49 vPerm
addToParameter 9 element 50 vPerm
addToParameter 9 element 51 vPerm
addToParameter 9 element 52 vPerm
addToParameter 9 element 53 vPerm
addToParameter 9 element 54 vPerm
addToParameter 9 element 55 vPerm
addToParameter 9 element 56 vPerm
addToParameter 9 element 57 vPerm
addToParameter 9 element 62 vPerm
addToParameter 9 element 63 vPerm
addToParameter 9 element 64 vPerm
addToParameter 9 element 65 vPerm
# ... 488 like lines cut

# parameter
parameter 10

# addToParameter
addToParameter 10 element 41 hPerm
addToParameter 10 element 61 hPerm
addToParameter 10 element 81 hPerm
addToParameter 10 element 101 hPerm
addToParameter 10 element 121 hPerm
addToParameter 10 element 141 hPerm
addToParameter 10 element 161 hPerm
addToParameter 10 element 181 hPerm
addToParameter 10 element 201 hPerm
addToParameter 10 element 221 hPerm
addToParameter 10 element 241 hPerm
addToParameter 10 element 261 hPerm
addToParameter 10 element 281 hPerm
addToParameter 10 element 301 hPerm
addToParameter 10 element 321 hPerm
addToParameter 10 element 341 hPerm
addToParameter 10 element 361 hPerm
addToParameter 10 element 381 hPerm
addToParameter 10 element 401 hPerm
addToParameter 10 element 421 hPerm
# ... 14 like lines cut

# parameter
parameter 11

# addToParameter
addToParameter 11 element 41 hPerm
addToParameter 11 element 61 hPerm
addToParameter 11 element 81 hPerm
addToParameter 11 element 101 hPerm
addToParameter 11 element 121 hPerm
addToParameter 11 element 141 hPerm
addToParameter 11 element 161 hPerm
addToParameter 11 element 181 hPerm
addToParameter 11 element 201 hPerm
addToParameter 11 element 221 hPerm
addToParameter 11 element 241 hPerm
addToParameter 11 element 261 hPerm
addToParameter 11 element 281 hPerm
addToParameter 11 element 301 hPerm
addToParameter 11 element 321 hPerm
addToParameter 11 element 341 hPerm
addToParameter 11 element 361 hPerm
addToParameter 11 element 381 hPerm
addToParameter 11 element 401 hPerm
addToParameter 11 element 421 hPerm
# ... 14 like lines cut

# parameter
parameter 12

# addToParameter
addToParameter 12 element 41 vPerm
addToParameter 12 element 61 vPerm
addToParameter 12 element 81 vPerm
addToParameter 12 element 101 vPerm
addToParameter 12 element 121 vPerm
addToParameter 12 element 141 vPerm
addToParameter 12 element 161 vPerm
addToParameter 12 element 181 vPerm
addToParameter 12 element 201 vPerm
addToParameter 12 element 221 vPerm
addToParameter 12 element 241 vPerm
addToParameter 12 element 261 vPerm
addToParameter 12 element 281 vPerm
addToParameter 12 element 301 vPerm
addToParameter 12 element 321 vPerm
addToParameter 12 element 341 vPerm
addToParameter 12 element 361 vPerm
addToParameter 12 element 381 vPerm
addToParameter 12 element 401 vPerm
addToParameter 12 element 421 vPerm
# ... 14 like lines cut

} elseif {$process_id == 1} {
# parameter
parameter 1

# addToParameter
addToParameter 1 element 18 hPerm
addToParameter 1 element 38 hPerm
addToParameter 1 element 658 hPerm
addToParameter 1 element 678 hPerm
addToParameter 1 element 698 hPerm
addToParameter 1 element 718 hPerm
addToParameter 1 element 738 hPerm
addToParameter 1 element 758 hPerm
addToParameter 1 element 778 hPerm
addToParameter 1 element 798 hPerm
addToParameter 1 element 818 hPerm
addToParameter 1 element 838 hPerm
addToParameter 1 element 858 hPerm
addToParameter 1 element 878 hPerm
addToParameter 1 element 895 hPerm
addToParameter 1 element 912 hPerm
addToParameter 1 element 929 hPerm
addToParameter 1 element 946 hPerm
addToParameter 1 element 963 hPerm
addToParameter 1 element 980 hPerm
# ... 26 like lines cut

# parameter
parameter 2

# addToParameter
addToParameter 2 element 18 hPerm
addToParameter 2 element 38 hPerm
addToParameter 2 element 658 hPerm
addToParameter 2 element 678 hPerm
addToParameter 2 element 698 hPerm
addToParameter 2 element 718 hPerm
addToParameter 2 element 738 hPerm
addToParameter 2 element 758 hPerm
addToParameter 2 element 778 hPerm
addToParameter 2 element 798 hPerm
addToParameter 2 element 818 hPerm
addToParameter 2 element 838 hPerm
addToParameter 2 element 858 hPerm
addToParameter 2 element 878 hPerm
addToParameter 2 element 895 hPerm
addToParameter 2 element 912 hPerm
addToParameter 2 element 929 hPerm
addToParameter 2 element 946 hPerm
addToParameter 2 element 963 hPerm
addToParameter 2 element 980 hPerm
# ... 26 like lines cut

# parameter
parameter 3

# addToParameter
addToParameter 3 element 18 vPerm
addToParameter 3 element 38 vPerm
addToParameter 3 element 658 vPerm
addToParameter 3 element 678 vPerm
addToParameter 3 element 698 vPerm
addToParameter 3 element 718 vPerm
addToParameter 3 element 738 vPerm
addToParameter 3 element 758 vPerm
addToParameter 3 element 778 vPerm
addToParameter 3 element 798 vPerm
addToParameter 3 element 818 vPerm
addToParameter 3 element 838 vPerm
addToParameter 3 element 858 vPerm
addToParameter 3 element 878 vPerm
addToParameter 3 element 895 vPerm
addToParameter 3 element 912 vPerm
addToParameter 3 element 929 vPerm
addToParameter 3 element 946 vPerm
addToParameter 3 element 963 vPerm
addToParameter 3 element 980 vPerm
# ... 26 like lines cut

# parameter
parameter 4

# addToParameter
addToParameter 4 element 19 hPerm
addToParameter 4 element 20 hPerm
addToParameter 4 element 39 hPerm
addToParameter 4 element 40 hPerm
addToParameter 4 element 659 hPerm
addToParameter 4 element 660 hPerm
addToParameter 4 element 679 hPerm
addToParameter 4 element 680 hPerm
addToParameter 4 element 699 hPerm
addToParameter 4 element 700 hPerm
addToParameter 4 element 719 hPerm
addToParameter 4 element 720 hPerm
addToParameter 4 element 739 hPerm
addToParameter 4 element 740 hPerm
addToParameter 4 element 759 hPerm
addToParameter 4 element 760 hPerm
addToParameter 4 element 779 hPerm
addToParameter 4 element 780 hPerm
addToParameter 4 element 799 hPerm
addToParameter 4 element 800 hPerm
# ... 72 like lines cut

# parameter
parameter 5

# addToParameter
addToParameter 5 element 19 hPerm
addToParameter 5 element 20 hPerm
addToParameter 5 element 39 hPerm
addToParameter 5 element 40 hPerm
addToParameter 5 element 659 hPerm
addToParameter 5 element 660 hPerm
addToParameter 5 element 679 hPerm
addToParameter 5 element 680 hPerm
addToParameter 5 element 699 hPerm
addToParameter 5 element 700 hPerm
addToParameter 5 element 719 hPerm
addToParameter 5 element 720 hPerm
addToParameter 5 element 739 hPerm
addToParameter 5 element 740 hPerm
addToParameter 5 element 759 hPerm
addToParameter 5 element 760 hPerm
addToParameter 5 element 779 hPerm
addToParameter 5 element 780 hPerm
addToParameter 5 element 799 hPerm
addToParameter 5 element 800 hPerm
# ... 72 like lines cut

# parameter
parameter 6

# addToParameter
addToParameter 6 element 19 vPerm
addToParameter 6 element 20 vPerm
addToParameter 6 element 39 vPerm
addToParameter 6 element 40 vPerm
addToParameter 6 element 659 vPerm
addToParameter 6 element 660 vPerm
addToParameter 6 element 679 vPerm
addToParameter 6 element 680 vPerm
addToParameter 6 element 699 vPerm
addToParameter 6 element 700 vPerm
addToParameter 6 element 719 vPerm
addToParameter 6 element 720 vPerm
addToParameter 6 element 739 vPerm
addToParameter 6 element 740 vPerm
addToParameter 6 element 759 vPerm
addToParameter 6 element 760 vPerm
addToParameter 6 element 779 vPerm
addToParameter 6 element 780 vPerm
addToParameter 6 element 799 vPerm
addToParameter 6 element 800 vPerm
# ... 72 like lines cut

# parameter
parameter 7

# addToParameter
addToParameter 7 element 2 hPerm
addToParameter 7 element 3 hPerm
addToParameter 7 element 4 hPerm
addToParameter 7 element 5 hPerm
addToParameter 7 element 6 hPerm
addToParameter 7 element 7 hPerm
addToParameter 7 element 8 hPerm
addToParameter 7 element 9 hPerm
addToParameter 7 element 10 hPerm
addToParameter 7 element 11 hPerm
addToParameter 7 element 12 hPerm
addToParameter 7 element 13 hPerm
addToParameter 7 element 14 hPerm
addToParameter 7 element 15 hPerm
addToParameter 7 element 16 hPerm
addToParameter 7 element 17 hPerm
addToParameter 7 element 22 hPerm
addToParameter 7 element 23 hPerm
addToParameter 7 element 24 hPerm
addToParameter 7 element 25 hPerm
# ... 656 like lines cut

# parameter
parameter 8

# addToParameter
addToParameter 8 element 2 hPerm
addToParameter 8 element 3 hPerm
addToParameter 8 element 4 hPerm
addToParameter 8 element 5 hPerm
addToParameter 8 element 6 hPerm
addToParameter 8 element 7 hPerm
addToParameter 8 element 8 hPerm
addToParameter 8 element 9 hPerm
addToParameter 8 element 10 hPerm
addToParameter 8 element 11 hPerm
addToParameter 8 element 12 hPerm
addToParameter 8 element 13 hPerm
addToParameter 8 element 14 hPerm
addToParameter 8 element 15 hPerm
addToParameter 8 element 16 hPerm
addToParameter 8 element 17 hPerm
addToParameter 8 element 22 hPerm
addToParameter 8 element 23 hPerm
addToParameter 8 element 24 hPerm
addToParameter 8 element 25 hPerm
# ... 656 like lines cut

# parameter
parameter 9

# addToParameter
addToParameter 9 element 2 vPerm
addToParameter 9 element 3 vPerm
addToParameter 9 element 4 vPerm
addToParameter 9 element 5 vPerm
addToParameter 9 element 6 vPerm
addToParameter 9 element 7 vPerm
addToParameter 9 element 8 vPerm
addToParameter 9 element 9 vPerm
addToParameter 9 element 10 vPerm
addToParameter 9 element 11 vPerm
addToParameter 9 element 12 vPerm
addToParameter 9 element 13 vPerm
addToParameter 9 element 14 vPerm
addToParameter 9 element 15 vPerm
addToParameter 9 element 16 vPerm
addToParameter 9 element 17 vPerm
addToParameter 9 element 22 vPerm
addToParameter 9 element 23 vPerm
addToParameter 9 element 24 vPerm
addToParameter 9 element 25 vPerm
# ... 656 like lines cut

# parameter
parameter 10

# addToParameter
addToParameter 10 element 1 hPerm
addToParameter 10 element 21 hPerm
addToParameter 10 element 641 hPerm
addToParameter 10 element 661 hPerm
addToParameter 10 element 681 hPerm
addToParameter 10 element 701 hPerm
addToParameter 10 element 721 hPerm
addToParameter 10 element 741 hPerm
addToParameter 10 element 761 hPerm
addToParameter 10 element 781 hPerm
addToParameter 10 element 801 hPerm
addToParameter 10 element 821 hPerm
addToParameter 10 element 1193 hPerm
addToParameter 10 element 1213 hPerm
addToParameter 10 element 1233 hPerm
addToParameter 10 element 1253 hPerm
addToParameter 10 element 1273 hPerm
addToParameter 10 element 1293 hPerm
addToParameter 10 element 1313 hPerm
addToParameter 10 element 1333 hPerm
# ... 6 like lines cut

# parameter
parameter 11

# addToParameter
addToParameter 11 element 1 hPerm
addToParameter 11 element 21 hPerm
addToParameter 11 element 641 hPerm
addToParameter 11 element 661 hPerm
addToParameter 11 element 681 hPerm
addToParameter 11 element 701 hPerm
addToParameter 11 element 721 hPerm
addToParameter 11 element 741 hPerm
addToParameter 11 element 761 hPerm
addToParameter 11 element 781 hPerm
addToParameter 11 element 801 hPerm
addToParameter 11 element 821 hPerm
addToParameter 11 element 1193 hPerm
addToParameter 11 element 1213 hPerm
addToParameter 11 element 1233 hPerm
addToParameter 11 element 1253 hPerm
addToParameter 11 element 1273 hPerm
addToParameter 11 element 1293 hPerm
addToParameter 11 element 1313 hPerm
addToParameter 11 element 1333 hPerm
# ... 6 like lines cut

# parameter
parameter 12

# addToParameter
addToParameter 12 element 1 vPerm
addToParameter 12 element 21 vPerm
addToParameter 12 element 641 vPerm
addToParameter 12 element 661 vPerm
addToParameter 12 element 681 vPerm
addToParameter 12 element 701 vPerm
addToParameter 12 element 721 vPerm
addToParameter 12 element 741 vPerm
addToParameter 12 element 761 vPerm
addToParameter 12 element 781 vPerm
addToParameter 12 element 801 vPerm
addToParameter 12 element 821 vPerm
addToParameter 12 element 1193 vPerm
addToParameter 12 element 1213 vPerm
addToParameter 12 element 1233 vPerm
addToParameter 12 element 1253 vPerm
addToParameter 12 element 1273 vPerm
addToParameter 12 element 1293 vPerm
addToParameter 12 element 1313 vPerm
addToParameter 12 element 1333 vPerm
# ... 6 like lines cut

} elseif {$process_id == 2} {
# parameter
parameter 1

# addToParameter
addToParameter 1 element 1450 hPerm
addToParameter 1 element 1470 hPerm
addToParameter 1 element 1490 hPerm
addToParameter 1 element 1510 hPerm
addToParameter 1 element 1530 hPerm
addToParameter 1 element 1550 hPerm
addToParameter 1 element 1570 hPerm
addToParameter 1 element 1590 hPerm
addToParameter 1 element 1610 hPerm
addToParameter 1 element 1630 hPerm
addToParameter 1 element 1650 hPerm
addToParameter 1 element 1670 hPerm
addToParameter 1 element 1690 hPerm
addToParameter 1 element 1710 hPerm
addToParameter 1 element 1730 hPerm
addToParameter 1 element 1750 hPerm
addToParameter 1 element 1770 hPerm
addToParameter 1 element 1790 hPerm
addToParameter 1 element 1810 hPerm
addToParameter 1 element 1830 hPerm
# ... 8 like lines cut

# parameter
parameter 2

# addToParameter
addToParameter 2 element 1450 hPerm
addToParameter 2 element 1470 hPerm
addToParameter 2 element 1490 hPerm
addToParameter 2 element 1510 hPerm
addToParameter 2 element 1530 hPerm
addToParameter 2 element 1550 hPerm
addToParameter 2 element 1570 hPerm
addToParameter 2 element 1590 hPerm
addToParameter 2 element 1610 hPerm
addToParameter 2 element 1630 hPerm
addToParameter 2 element 1650 hPerm
addToParameter 2 element 1670 hPerm
addToParameter 2 element 1690 hPerm
addToParameter 2 element 1710 hPerm
addToParameter 2 element 1730 hPerm
addToParameter 2 element 1750 hPerm
addToParameter 2 element 1770 hPerm
addToParameter 2 element 1790 hPerm
addToParameter 2 element 1810 hPerm
addToParameter 2 element 1830 hPerm
# ... 8 like lines cut

# parameter
parameter 3

# addToParameter
addToParameter 3 element 1450 vPerm
addToParameter 3 element 1470 vPerm
addToParameter 3 element 1490 vPerm
addToParameter 3 element 1510 vPerm
addToParameter 3 element 1530 vPerm
addToParameter 3 element 1550 vPerm
addToParameter 3 element 1570 vPerm
addToParameter 3 element 1590 vPerm
addToParameter 3 element 1610 vPerm
addToParameter 3 element 1630 vPerm
addToParameter 3 element 1650 vPerm
addToParameter 3 element 1670 vPerm
addToParameter 3 element 1690 vPerm
addToParameter 3 element 1710 vPerm
addToParameter 3 element 1730 vPerm
addToParameter 3 element 1750 vPerm
addToParameter 3 element 1770 vPerm
addToParameter 3 element 1790 vPerm
addToParameter 3 element 1810 vPerm
addToParameter 3 element 1830 vPerm
# ... 8 like lines cut

# parameter
parameter 4

# addToParameter
addToParameter 4 element 1451 hPerm
addToParameter 4 element 1452 hPerm
addToParameter 4 element 1471 hPerm
addToParameter 4 element 1472 hPerm
addToParameter 4 element 1491 hPerm
addToParameter 4 element 1492 hPerm
addToParameter 4 element 1511 hPerm
addToParameter 4 element 1512 hPerm
addToParameter 4 element 1531 hPerm
addToParameter 4 element 1532 hPerm
addToParameter 4 element 1551 hPerm
addToParameter 4 element 1552 hPerm
addToParameter 4 element 1571 hPerm
addToParameter 4 element 1572 hPerm
addToParameter 4 element 1591 hPerm
addToParameter 4 element 1592 hPerm
addToParameter 4 element 1611 hPerm
addToParameter 4 element 1612 hPerm
addToParameter 4 element 1631 hPerm
addToParameter 4 element 1632 hPerm
# ... 36 like lines cut

# parameter
parameter 5

# addToParameter
addToParameter 5 element 1451 hPerm
addToParameter 5 element 1452 hPerm
addToParameter 5 element 1471 hPerm
addToParameter 5 element 1472 hPerm
addToParameter 5 element 1491 hPerm
addToParameter 5 element 1492 hPerm
addToParameter 5 element 1511 hPerm
addToParameter 5 element 1512 hPerm
addToParameter 5 element 1531 hPerm
addToParameter 5 element 1532 hPerm
addToParameter 5 element 1551 hPerm
addToParameter 5 element 1552 hPerm
addToParameter 5 element 1571 hPerm
addToParameter 5 element 1572 hPerm
addToParameter 5 element 1591 hPerm
addToParameter 5 element 1592 hPerm
addToParameter 5 element 1611 hPerm
addToParameter 5 element 1612 hPerm
addToParameter 5 element 1631 hPerm
addToParameter 5 element 1632 hPerm
# ... 36 like lines cut

# parameter
parameter 6

# addToParameter
addToParameter 6 element 1451 vPerm
addToParameter 6 element 1452 vPerm
addToParameter 6 element 1471 vPerm
addToParameter 6 element 1472 vPerm
addToParameter 6 element 1491 vPerm
addToParameter 6 element 1492 vPerm
addToParameter 6 element 1511 vPerm
addToParameter 6 element 1512 vPerm
addToParameter 6 element 1531 vPerm
addToParameter 6 element 1532 vPerm
addToParameter 6 element 1551 vPerm
addToParameter 6 element 1552 vPerm
addToParameter 6 element 1571 vPerm
addToParameter 6 element 1572 vPerm
addToParameter 6 element 1591 vPerm
addToParameter 6 element 1592 vPerm
addToParameter 6 element 1611 vPerm
addToParameter 6 element 1612 vPerm
addToParameter 6 element 1631 vPerm
addToParameter 6 element 1632 vPerm
# ... 36 like lines cut

# parameter
parameter 7

# addToParameter
addToParameter 7 element 1434 hPerm
addToParameter 7 element 1435 hPerm
addToParameter 7 element 1436 hPerm
addToParameter 7 element 1437 hPerm
addToParameter 7 element 1438 hPerm
addToParameter 7 element 1439 hPerm
addToParameter 7 element 1440 hPerm
addToParameter 7 element 1441 hPerm
addToParameter 7 element 1442 hPerm
addToParameter 7 element 1443 hPerm
addToParameter 7 element 1444 hPerm
addToParameter 7 element 1445 hPerm
addToParameter 7 element 1446 hPerm
addToParameter 7 element 1447 hPerm
addToParameter 7 element 1448 hPerm
addToParameter 7 element 1449 hPerm
addToParameter 7 element 1454 hPerm
addToParameter 7 element 1455 hPerm
addToParameter 7 element 1456 hPerm
addToParameter 7 element 1457 hPerm
# ... 428 like lines cut

# parameter
parameter 8

# addToParameter
addToParameter 8 element 1434 hPerm
addToParameter 8 element 1435 hPerm
addToParameter 8 element 1436 hPerm
addToParameter 8 element 1437 hPerm
addToParameter 8 element 1438 hPerm
addToParameter 8 element 1439 hPerm
addToParameter 8 element 1440 hPerm
addToParameter 8 element 1441 hPerm
addToParameter 8 element 1442 hPerm
addToParameter 8 element 1443 hPerm
addToParameter 8 element 1444 hPerm
addToParameter 8 element 1445 hPerm
addToParameter 8 element 1446 hPerm
addToParameter 8 element 1447 hPerm
addToParameter 8 element 1448 hPerm
addToParameter 8 element 1449 hPerm
addToParameter 8 element 1454 hPerm
addToParameter 8 element 1455 hPerm
addToParameter 8 element 1456 hPerm
addToParameter 8 element 1457 hPerm
# ... 428 like lines cut

# parameter
parameter 9

# addToParameter
addToParameter 9 element 1434 vPerm
addToParameter 9 element 1435 vPerm
addToParameter 9 element 1436 vPerm
addToParameter 9 element 1437 vPerm
addToParameter 9 element 1438 vPerm
addToParameter 9 element 1439 vPerm
addToParameter 9 element 1440 vPerm
addToParameter 9 element 1441 vPerm
addToParameter 9 element 1442 vPerm
addToParameter 9 element 1443 vPerm
addToParameter 9 element 1444 vPerm
addToParameter 9 element 1445 vPerm
addToParameter 9 element 1446 vPerm
addToParameter 9 element 1447 vPerm
addToParameter 9 element 1448 vPerm
addToParameter 9 element 1449 vPerm
addToParameter 9 element 1454 vPerm
addToParameter 9 element 1455 vPerm
addToParameter 9 element 1456 vPerm
addToParameter 9 element 1457 vPerm
# ... 428 like lines cut

# parameter
parameter 10

# addToParameter
addToParameter 10 element 1433 hPerm
addToParameter 10 element 1453 hPerm
addToParameter 10 element 1473 hPerm
addToParameter 10 element 1493 hPerm
addToParameter 10 element 1513 hPerm
addToParameter 10 element 1533 hPerm
addToParameter 10 element 1553 hPerm
addToParameter 10 element 1573 hPerm
addToParameter 10 element 1593 hPerm
addToParameter 10 element 1613 hPerm
addToParameter 10 element 1633 hPerm
addToParameter 10 element 1653 hPerm
addToParameter 10 element 1673 hPerm
addToParameter 10 element 1693 hPerm
addToParameter 10 element 1713 hPerm
addToParameter 10 element 1733 hPerm
addToParameter 10 element 1753 hPerm
addToParameter 10 element 1773 hPerm
addToParameter 10 element 1793 hPerm
addToParameter 10 element 1813 hPerm
# ... 8 like lines cut

# parameter
parameter 11

# addToParameter
addToParameter 11 element 1433 hPerm
addToParameter 11 element 1453 hPerm
addToParameter 11 element 1473 hPerm
addToParameter 11 element 1493 hPerm
addToParameter 11 element 1513 hPerm
addToParameter 11 element 1533 hPerm
addToParameter 11 element 1553 hPerm
addToParameter 11 element 1573 hPerm
addToParameter 11 element 1593 hPerm
addToParameter 11 element 1613 hPerm
addToParameter 11 element 1633 hPerm
addToParameter 11 element 1653 hPerm
addToParameter 11 element 1673 hPerm
addToParameter 11 element 1693 hPerm
addToParameter 11 element 1713 hPerm
addToParameter 11 element 1733 hPerm
addToParameter 11 element 1753 hPerm
addToParameter 11 element 1773 hPerm
addToParameter 11 element 1793 hPerm
addToParameter 11 element 1813 hPerm
# ... 8 like lines cut

# parameter
parameter 12

# addToParameter
addToParameter 12 element 1433 vPerm
addToParameter 12 element 1453 vPerm
addToParameter 12 element 1473 vPerm
addToParameter 12 element 1493 vPerm
addToParameter 12 element 1513 vPerm
addToParameter 12 element 1533 vPerm
addToParameter 12 element 1553 vPerm
addToParameter 12 element 1573 vPerm
addToParameter 12 element 1593 vPerm
addToParameter 12 element 1613 vPerm
addToParameter 12 element 1633 vPerm
addToParameter 12 element 1653 vPerm
addToParameter 12 element 1673 vPerm
addToParameter 12 element 1693 vPerm
addToParameter 12 element 1713 vPerm
addToParameter 12 element 1733 vPerm
addToParameter 12 element 1753 vPerm
addToParameter 12 element 1773 vPerm
addToParameter 12 element 1793 vPerm
addToParameter 12 element 1813 vPerm
# ... 8 like lines cut

}
# Misc_commands updateParameter

# updateParameter
updateParameter 1 3.0581e-08
updateParameter 2 3.0581e-08
updateParameter 3 3.0581e-08

# updateParameter
updateParameter 4 1.0688e-05
updateParameter 5 1.0688e-05
updateParameter 6 1.0688e-05

# updateParameter
updateParameter 7 1.213e-05
updateParameter 8 1.213e-05
updateParameter 9 1.213e-05

# updateParameter
updateParameter 10 5.4027e-05
updateParameter 11 5.4027e-05
updateParameter 12 5.4027e-05

puts "Finished updating permeabilities for dynamic analysis..."

#--------------------------------------------------------------------------------------------------
#          13 - GROUND MOTION
#--------------------------------------------------------------------------------------------------

set dataDirWM WithinMotions
set GaccelWM "Series -dt [lindex $matGMDT $idgmi-1] -filePath $dataDirWM/$fileWMID.out -factor 9.81"
pattern UniformExcitation 1 1 -accel $GaccelWM;                             # Acceleration tag:1 at x-direction

puts "Dynamic loading created..."

#--------------------------------------------------------------------------------------------------
#          14 - CREATE POST-GRAVITY RECORDERS 
#--------------------------------------------------------------------------------------------------

source recorderNM.tcl

puts "Created dynamic recorders..."
if {$process_id == 0} {
	    set fid [open "$dataDir2/MethodRun_idCf48.out" a]
	    	puts $fid "2"
	    	close $fid
}
#--------------------------------------------------------------------------------------------------
#          15 - STAGE 3 - ANALYSES COMMANDS
#--------------------------------------------------------------------------------------------------

puts "Starting dynamic analysis..."

wipeAnalysis
# analyses command
constraints Penalty 1e15 1e15
numberer ParallelRCM
system Mumps -ICNTL14 200
test NormDispIncr 0.02 8 0
algorithm KrylovNewton -iterate current
integrator Newmark 0.51 0.26
analysis Transient
analyze 0 0.0

#--------------------------------------------------------------------------------------------------
#          16 - PERFORM INCREMENTAL DYNAMIC ANALYSIS
#--------------------------------------------------------------------------------------------------

set duration [lindex $matGMdur1 $idgmi-1]
set dT0 [lindex $matGMDT $idgmi-1]
set currentTime 0.0
set maxFactor 2.0
set minFactor 1.0E-6
set maxFactorIncrement 2.0
set minFactorIncrement 0.0
set maxIter 100
set desiredIter 30
set factor 1.0
set oldFactor $factor

set flagDriftok 0
if {$process_id == 0} {
# Drift calculation - define variables
set StHeight 4
set DriftLimit 0.08
set ntagFnd 5000001
set FndDisp0 [nodeDisp $ntagFnd 1]
set ntagSt1 3000004
set F1Disp0 [nodeDisp $ntagSt1 1]
# rocking drift calculation
set ntagFndL 5000001
set FndDispL0 [nodeDisp $ntagFnd 3]
set ntagFndR 5000002
set FndDispR0 [nodeDisp $ntagFnd 3]
set Bmod 5.0
}
puts "BEGIN STAGE 3.1 - INCREMENTAL DYNAMIC ANALYSIS WITH ADAPTIVE TIME-STEP CONTROL"
puts "Duration 3.1 = $duration s"
puts "Initial dT = $dT0"

while 1 {

	incr incrementCounter
	# compute next time increment, make sure not to exceed max duration
	set dT [expr $dT0 * $factor]
	if {[expr $currentTime + $dT] >  $duration} {
		set dT [expr $duration - $currentTime]
	}
	set ok [analyze 1 $dT $dT 1]

if {$process_id == 0} {
	# interstory rocking drift ratio calculation
	set FndDispL [expr [nodeDisp $ntagFndL 3] - $FndDispL0]
	set FndDispR [expr [nodeDisp $ntagFndR 3] - $FndDispR0]
	set rock_rot [expr {atan(($FndDispL - $FndDispR) / $Bmod)}]
	set sgn [expr {($rock_rot > 0) ? 1 : (($rock_rot < 0) ? -1 : 0)}]

    set drift_rock_perfloor [expr {($sgn * sqrt(2 * (1 - cos($rock_rot)))) * 4}]
    if {$incrementCounter == 1} {
        set drift_rock_perfloor0 $drift_rock_perfloor
    } else {
    }
   set drift_rock_perfloor [expr $drift_rock_perfloor - $drift_rock_perfloor0]

    set outputFileDriftRock [open "$dataDir1/DriftRock-part0.out" "a"]
    puts $outputFileDriftRock "$currentTime $drift_rock_perfloor"
    close $outputFileDriftRock

    # interstory total drift ratio calculation
    # Floor 1
    set flagDriftok 0
    set FndDisp [expr [nodeDisp $ntagFnd 1] - $FndDisp0]
    set F1Disp [expr [nodeDisp $ntagSt1 1] - $F1Disp0]
    set DriftTF1 [expr $F1Disp - $FndDisp]

    set outputFileDriftTF1 [open "$dataDir1/DriftTF1-part0.out" "a"]
    puts $outputFileDriftTF1 "$currentTime $DriftTF1"
    close $outputFileDriftTF1

    set DriftFF1 [expr {$DriftTF1 - $drift_rock_perfloor}]

    set outputFileDriftFF1 [open "$dataDir1/DriftFF1-part0.out" "a"]
    puts $outputFileDriftFF1 "$currentTime $DriftFF1"
    close $outputFileDriftFF1

    set absolute_values [lmap value [concat $DriftFF1] {expr {abs($value)}}]
    set maxdrift 0
    foreach val $absolute_values { if {$val > $maxdrift} { set maxdrift $val } }
	# Check if story drift exceeds 5%
	if {[expr $maxdrift/$StHeight] > $DriftLimit} {
	    puts "Warning: One or more interstory flexural drift values exceeds the DriftLimit:$DriftLimit% threshold at time $currentTime seconds."
	    set flagDriftok 1
	    puts "Terminating analysis..."

	    set fid [open "$dataDir2/UnsuccessfulCollapseNM_idCf48.out" a]
	    puts $fid "$idgmout "
	    close $fid
	    break
	}

}
	if {$ok == 0} {
		set currentTime [expr $currentTime + $dT]
		set percentage [expr $currentTime / $duration]
		if {$percentage > 1.0} {
			set percentage 1.0
		}

		puts "Analysis Progress: [expr $percentage*100.0] %, $currentTime s"
		if {$currentTime >= $duration} {
			puts "Dynamic Analysis successfully completed."
           if {$process_id == 0} {
	    set fid [open "$dataDir2/SuccessfulNLNM_idCf48.out" a]
	    	puts $fid "$idgmout"
	    	close $fid
           }
			break
		}

		set numIter [testIter]
		set factorIncrement [expr min($maxFactorIncrement, [expr double($desiredIter) / double($numIter)])]
		set factor [expr $factor * $factorIncrement]
		if {$factor > $maxFactor} {
			set factor $maxFactor
		}
		if {$factor > $oldFactor} {
			puts "Increasing increment factor due to faster convergence. Factor = $factor"
		}
		set oldFactor $factor
	} else {
		set numIter $maxIter
		set factorIncrement [expr max($minFactorIncrement, [expr double($desiredIter) / double($numIter)])]
		set factor [expr $factor * $factorIncrement]
		puts "Reducing increment factor due to non convergence. Factor = $factor"
		if {$factor < $minFactor} {
			puts "ERROR: current factor is less then the minimum allowed ($factor < $minFactor)"
			puts "Giving up - Dynamic analysis did not converge"
			set fid [open "$dataDir2/UnsuccessfulNLNM_idCf48.out" a]
			puts $fid "$idgmout "
			close $fid
			break
		}
	}
}


puts "DONE STAGE 3.1 - INCREMENTAL DYNAMIC ANALYSIS WITH ADAPTIVE TIME-STEP CONTROL"

if {$flagDriftok == 0} {

	remove recorders
	source recorderNMdiff.tcl

	puts "Created dynamic diffusion recorders..."
	#--------------------------------------------------------------------------------------------------
	#          17 - PERFORM INCREMENTAL DIFFUSION ANALYSIS WITH LARGER TIME STEP
	#--------------------------------------------------------------------------------------------------

	puts "BEGIN STAGE 3.2 - INCREMENTAL DIFFUSION ANALYSIS WITH ADAPTIVE TIME-STEP CONTROL"

	set duration [expr [lindex $matGMdur2 $idgmi-1]-0.01]

	puts "STAGE 3.2 - Duration: $duration s"

	set dT0 0.5
	set currentTime 0.0
	set maxFactor 8.0
	set minFactor 1.0E-6
	set maxFactorIncrement 2.0
	set minFactorIncrement 0.0
	set maxIter 100
	set desiredIter 30
	set factor 1.0
	set oldFactor $factor

	puts ""
	puts "BEGIN STAGE 3.2 - INCREMENTAL DIFFUSION ANALYSIS WITH ADAPTIVE TIME-STEP CONTROL"
	puts "Duration = $duration s"
	puts ""
	puts "Initial dT = $dT0"

	while 1 {

		incr incrementCounter
		# compute next time increment, make sure not to exceed max duration
		set dT [expr $dT0 * $factor]
		if {[expr $currentTime + $dT] >  $duration} {
			set dT [expr $duration - $currentTime]
		}
		set ok [analyze 1 $dT $dT 1]

		if {$ok == 0} {
			set currentTime [expr $currentTime + $dT]
			set percentage [expr $currentTime / $duration]
			if {$percentage > 1.0} {
				set percentage 1.0
			}

			puts "Analysis Progress: [expr $percentage*100.0] %"
			if {$currentTime >= $duration} {
				record
				puts "Dynamic Analysis successfully completed."
				puts ""
				break
			}

			set numIter [testIter]
			set factorIncrement [expr min($maxFactorIncrement, [expr double($desiredIter) / double($numIter)])]
			set factor [expr $factor * $factorIncrement]
			if {$factor > $maxFactor} {
				set factor $maxFactor
			}
			if {$factor > $oldFactor} {
				puts "Increasing increment factor due to faster convergence. Factor = $factor"
			}
			set oldFactor $factor
		} else {
			set numIter $maxIter
			set factorIncrement [expr max($minFactorIncrement, [expr double($desiredIter) / double($numIter)])]
			set factor [expr $factor * $factorIncrement]
			puts "Reducing increment factor due to non convergence. Factor = $factor"
			if {$factor < $minFactor} {
				puts "ERROR: current factor is less then the minimum allowed ($factor < $minFactor)"
				puts "Giving up - Dynamic analysis did not converge"
				puts ""
				break
			}
		}
	}

	set endT    [clock seconds]

	puts "Dynamic+Diffusion Analysis succesfully completed."
	puts "Recording outputs idgm in successful.out + run time..."
if {$process_id == 0} {
	set fid [open "$dataDir2/SuccessfulANM_idCf48.out" a]
	puts $fid "$idgmout [expr [expr $endT-$startT]/3600]"
	close $fid
}
}

set endT    [clock seconds]

if {$process_id == 0} {
puts "DONE MOTION idgm: [lindex $matGMid $index-1]"
puts "Analysis execution time idgm: [lindex $matGMid $index-1]: [expr $endT-$startT] seconds"

puts " "
}
# Reset time and analysis
loadConst 0.0
setTime 0.0
wipeAnalysis
remove recorders

wipe
}
# --------------------------------------------------------------------------------------------------
